#======================================================================

# CRYSTAL DATA

#----------------------------------------------------------------------

data_VESTA_phase_1


_pd_phase_name                         'UiO-67 - PBEsol                       '
_cell_length_a                         19.01161
_cell_length_b                         19.01161
_cell_length_c                         19.01161
_cell_angle_alpha                      60.00000
_cell_angle_beta                       60.00000
_cell_angle_gamma                      60.00000
_symmetry_space_group_name_H-M         'P 1'
_symmetry_Int_Tables_number            1

loop_
_symmetry_equiv_pos_as_xyz
   'x, y, z'

loop_
   _atom_site_label
   _atom_site_occupancy
   _atom_site_fract_x
   _atom_site_fract_y
   _atom_site_fract_z
   _atom_site_adp_type
   _atom_site_B_iso_or_equiv
   _atom_site_type_symbol
   H1         1.0     0.292601      0.653321      0.135041     Biso  1.000000 H
   H2         1.0     0.653321      0.292601      0.919037     Biso  1.000000 H
   H3         1.0     0.135041      0.919037      0.292601     Biso  1.000000 H
   H4         1.0     0.919037      0.135041      0.653321     Biso  1.000000 H
   H5         1.0     0.135041      0.292601      0.653321     Biso  1.000000 H
   H6         1.0     0.919037      0.653321      0.292601     Biso  1.000000 H
   H7         1.0     0.292601      0.135041      0.919037     Biso  1.000000 H
   H8         1.0     0.653321      0.919037      0.135041     Biso  1.000000 H
   H9         1.0     0.653321      0.135041      0.292601     Biso  1.000000 H
   H10        1.0     0.292601      0.919037      0.653321     Biso  1.000000 H
   H11        1.0     0.919037      0.292601      0.135041     Biso  1.000000 H
   H12        1.0     0.135041      0.653321      0.919037     Biso  1.000000 H
   H13        1.0     0.420002      0.518342      0.139201     Biso  1.000000 H
   H14        1.0     0.518342      0.420002      0.922455     Biso  1.000000 H
   H15        1.0     0.139201      0.922455      0.420002     Biso  1.000000 H
   H16        1.0     0.922455      0.139201      0.518342     Biso  1.000000 H
   H17        1.0     0.139201      0.420002      0.518342     Biso  1.000000 H
   H18        1.0     0.922455      0.518342      0.420002     Biso  1.000000 H
   H19        1.0     0.420002      0.139201      0.922455     Biso  1.000000 H
   H20        1.0     0.518342      0.922455      0.139201     Biso  1.000000 H
   H21        1.0     0.518342      0.139201      0.420002     Biso  1.000000 H
   H22        1.0     0.420002      0.922455      0.518342     Biso  1.000000 H
   H23        1.0     0.922455      0.420002      0.139201     Biso  1.000000 H
   H24        1.0     0.139201      0.518342      0.922455     Biso  1.000000 H
   H25        1.0     0.875428      0.693150      0.094747     Biso  1.000000 H
   H26        1.0     0.693150      0.875428      0.336675     Biso  1.000000 H
   H27        1.0     0.094747      0.336675      0.875428     Biso  1.000000 H
   H28        1.0     0.336675      0.094747      0.693150     Biso  1.000000 H
   H29        1.0     0.094747      0.875428      0.693150     Biso  1.000000 H
   H30        1.0     0.336675      0.693150      0.875428     Biso  1.000000 H
   H31        1.0     0.875428      0.094747      0.336675     Biso  1.000000 H
   H32        1.0     0.693150      0.336675      0.094747     Biso  1.000000 H
   H33        1.0     0.693150      0.094747      0.875428     Biso  1.000000 H
   H34        1.0     0.875428      0.336675      0.693150     Biso  1.000000 H
   H35        1.0     0.336675      0.875428      0.094747     Biso  1.000000 H
   H36        1.0     0.094747      0.693150      0.336675     Biso  1.000000 H
   H37        1.0     0.876156      0.561755      0.094320     Biso  1.000000 H
   H38        1.0     0.561755      0.876156      0.467769     Biso  1.000000 H
   H39        1.0     0.094320      0.467769      0.876156     Biso  1.000000 H
   H40        1.0     0.467769      0.094320      0.561755     Biso  1.000000 H
   H41        1.0     0.094320      0.876156      0.561755     Biso  1.000000 H
   H42        1.0     0.467769      0.561755      0.876156     Biso  1.000000 H
   H43        1.0     0.876156      0.094320      0.467769     Biso  1.000000 H
   H44        1.0     0.561755      0.467769      0.094320     Biso  1.000000 H
   H45        1.0     0.561755      0.094320      0.876156     Biso  1.000000 H
   H46        1.0     0.876156      0.467769      0.561755     Biso  1.000000 H
   H47        1.0     0.467769      0.876156      0.094320     Biso  1.000000 H
   H48        1.0     0.094320      0.561755      0.467769     Biso  1.000000 H
   H49        1.0     0.927263      0.927263      0.218210     Biso  1.000000 H
   H50        1.0     0.927263      0.927263      0.927263     Biso  1.000000 H
   H51        1.0     0.218210      0.927263      0.927263     Biso  1.000000 H
   H52        1.0     0.927263      0.218210      0.927263     Biso  1.000000 H
   C1         1.0     0.331685      0.632014      0.078813     Biso  1.000000 C
   C2         1.0     0.632014      0.331685      0.957489     Biso  1.000000 C
   C3         1.0     0.078813      0.957489      0.331685     Biso  1.000000 C
   C4         1.0     0.957489      0.078813      0.632014     Biso  1.000000 C
   C5         1.0     0.078813      0.331685      0.632014     Biso  1.000000 C
   C6         1.0     0.957489      0.632014      0.331685     Biso  1.000000 C
   C7         1.0     0.331685      0.078813      0.957489     Biso  1.000000 C
   C8         1.0     0.632014      0.957489      0.078813     Biso  1.000000 C
   C9         1.0     0.632014      0.078813      0.331685     Biso  1.000000 C
   C10        1.0     0.331685      0.957489      0.632014     Biso  1.000000 C
   C11        1.0     0.957489      0.331685      0.078813     Biso  1.000000 C
   C12        1.0     0.078813      0.632014      0.957489     Biso  1.000000 C
   C13        1.0     0.403132      0.557573      0.080284     Biso  1.000000 C
   C14        1.0     0.557573      0.403132      0.959011     Biso  1.000000 C
   C15        1.0     0.080284      0.959011      0.403132     Biso  1.000000 C
   C16        1.0     0.959011      0.080284      0.557573     Biso  1.000000 C
   C17        1.0     0.080284      0.403132      0.557573     Biso  1.000000 C
   C18        1.0     0.959011      0.557573      0.403132     Biso  1.000000 C
   C19        1.0     0.403132      0.080284      0.959011     Biso  1.000000 C
   C20        1.0     0.557573      0.959011      0.080284     Biso  1.000000 C
   C21        1.0     0.557573      0.080284      0.403132     Biso  1.000000 C
   C22        1.0     0.403132      0.959011      0.557573     Biso  1.000000 C
   C23        1.0     0.959011      0.403132      0.080284     Biso  1.000000 C
   C24        1.0     0.080284      0.557573      0.959011     Biso  1.000000 C
   C25        1.0     0.231879      0.761396      0.002669     Biso  1.000000 C
   C26        1.0     0.761396      0.231879      0.004056     Biso  1.000000 C
   C27        1.0     0.002669      0.004056      0.231879     Biso  1.000000 C
   C28        1.0     0.004056      0.002669      0.761396     Biso  1.000000 C
   C29        1.0     0.002669      0.231879      0.761396     Biso  1.000000 C
   C30        1.0     0.004056      0.761396      0.231879     Biso  1.000000 C
   C31        1.0     0.231879      0.002669      0.004056     Biso  1.000000 C
   C32        1.0     0.761396      0.004056      0.002669     Biso  1.000000 C
   C33        1.0     0.761396      0.002669      0.231879     Biso  1.000000 C
   C34        1.0     0.231879      0.004056      0.761396     Biso  1.000000 C
   C35        1.0     0.004056      0.231879      0.002669     Biso  1.000000 C
   C36        1.0     0.002669      0.761396      0.004056     Biso  1.000000 C
   C37        1.0     0.307589      0.680879      0.004993     Biso  1.000000 C
   C38        1.0     0.680879      0.307589      0.006539     Biso  1.000000 C
   C39        1.0     0.004993      0.006539      0.307589     Biso  1.000000 C
   C40        1.0     0.006539      0.004993      0.680879     Biso  1.000000 C
   C41        1.0     0.004993      0.307589      0.680879     Biso  1.000000 C
   C42        1.0     0.006539      0.680879      0.307589     Biso  1.000000 C
   C43        1.0     0.307589      0.004993      0.006539     Biso  1.000000 C
   C44        1.0     0.680879      0.006539      0.004993     Biso  1.000000 C
   C45        1.0     0.680879      0.004993      0.307589     Biso  1.000000 C
   C46        1.0     0.307589      0.006539      0.680879     Biso  1.000000 C
   C47        1.0     0.006539      0.307589      0.004993     Biso  1.000000 C
   C48        1.0     0.004993      0.680879      0.006539     Biso  1.000000 C
   C49        1.0     0.453283      0.530691      0.007757     Biso  1.000000 C
   C50        1.0     0.530691      0.453283      0.008270     Biso  1.000000 C
   C51        1.0     0.007757      0.008270      0.453283     Biso  1.000000 C
   C52        1.0     0.008270      0.007757      0.530691     Biso  1.000000 C
   C53        1.0     0.007757      0.453283      0.530691     Biso  1.000000 C
   C54        1.0     0.008270      0.530691      0.453283     Biso  1.000000 C
   C55        1.0     0.453283      0.007757      0.008270     Biso  1.000000 C
   C56        1.0     0.530691      0.008270      0.007757     Biso  1.000000 C
   C57        1.0     0.530691      0.007757      0.453283     Biso  1.000000 C
   C58        1.0     0.453283      0.008270      0.530691     Biso  1.000000 C
   C59        1.0     0.008270      0.453283      0.007757     Biso  1.000000 C
   C60        1.0     0.007757      0.530691      0.008270     Biso  1.000000 C
   C61        1.0     0.932832      0.654064      0.057027     Biso  1.000000 C
   C62        1.0     0.654064      0.932832      0.356077     Biso  1.000000 C
   C63        1.0     0.057027      0.356077      0.932832     Biso  1.000000 C
   C64        1.0     0.356077      0.057027      0.654064     Biso  1.000000 C
   C65        1.0     0.057027      0.932832      0.654064     Biso  1.000000 C
   C66        1.0     0.356077      0.654064      0.932832     Biso  1.000000 C
   C67        1.0     0.932832      0.057027      0.356077     Biso  1.000000 C
   C68        1.0     0.654064      0.356077      0.057027     Biso  1.000000 C
   C69        1.0     0.654064      0.057027      0.932832     Biso  1.000000 C
   C70        1.0     0.932832      0.356077      0.654064     Biso  1.000000 C
   C71        1.0     0.356077      0.932832      0.057027     Biso  1.000000 C
   C72        1.0     0.057027      0.654064      0.356077     Biso  1.000000 C
   C73        1.0     0.934058      0.580385      0.057228     Biso  1.000000 C
   C74        1.0     0.580385      0.934058      0.428328     Biso  1.000000 C
   C75        1.0     0.057228      0.428328      0.934058     Biso  1.000000 C
   C76        1.0     0.428328      0.057228      0.580385     Biso  1.000000 C
   C77        1.0     0.057228      0.934058      0.580385     Biso  1.000000 C
   C78        1.0     0.428328      0.580385      0.934058     Biso  1.000000 C
   C79        1.0     0.934058      0.057228      0.428328     Biso  1.000000 C
   C80        1.0     0.580385      0.428328      0.057228     Biso  1.000000 C
   C81        1.0     0.580385      0.057228      0.934058     Biso  1.000000 C
   C82        1.0     0.934058      0.428328      0.580385     Biso  1.000000 C
   C83        1.0     0.428328      0.934058      0.057228     Biso  1.000000 C
   C84        1.0     0.057228      0.580385      0.428328     Biso  1.000000 C
   O1         1.0     0.201071      0.791883      0.062478     Biso  1.000000 O
   O2         1.0     0.791883      0.201071      0.944568     Biso  1.000000 O
   O3         1.0     0.062478      0.944568      0.201071     Biso  1.000000 O
   O4         1.0     0.944568      0.062478      0.791883     Biso  1.000000 O
   O5         1.0     0.062478      0.201071      0.791883     Biso  1.000000 O
   O6         1.0     0.944568      0.791883      0.201071     Biso  1.000000 O
   O7         1.0     0.201071      0.062478      0.944568     Biso  1.000000 O
   O8         1.0     0.791883      0.944568      0.062478     Biso  1.000000 O
   O9         1.0     0.791883      0.062478      0.201071     Biso  1.000000 O
   O10        1.0     0.201071      0.944568      0.791883     Biso  1.000000 O
   O11        1.0     0.944568      0.201071      0.062478     Biso  1.000000 O
   O12        1.0     0.062478      0.791883      0.944568     Biso  1.000000 O
   O13        1.0     0.940164      0.794661      0.060952     Biso  1.000000 O
   O14        1.0     0.794661      0.940164      0.204223     Biso  1.000000 O
   O15        1.0     0.060952      0.204223      0.940164     Biso  1.000000 O
   O16        1.0     0.204223      0.060952      0.794661     Biso  1.000000 O
   O17        1.0     0.060952      0.940164      0.794661     Biso  1.000000 O
   O18        1.0     0.204223      0.794661      0.940164     Biso  1.000000 O
   O19        1.0     0.940164      0.060952      0.204223     Biso  1.000000 O
   O20        1.0     0.794661      0.204223      0.060952     Biso  1.000000 O
   O21        1.0     0.794661      0.060952      0.940164     Biso  1.000000 O
   O22        1.0     0.940164      0.204223      0.794661     Biso  1.000000 O
   O23        1.0     0.204223      0.940164      0.060952     Biso  1.000000 O
   O24        1.0     0.060952      0.794661      0.204223     Biso  1.000000 O
   O25        1.0     0.155508      0.948164      0.948164     Biso  1.000000 O
   O26        1.0     0.948164      0.155508      0.948164     Biso  1.000000 O
   O27        1.0     0.948164      0.948164      0.155508     Biso  1.000000 O
   O28        1.0     0.948164      0.948164      0.948164     Biso  1.000000 O
   O29        1.0     0.883437      0.038854      0.038854     Biso  1.000000 O
   O30        1.0     0.038854      0.883437      0.038854     Biso  1.000000 O
   O31        1.0     0.038854      0.038854      0.883437     Biso  1.000000 O
   O32        1.0     0.038854      0.038854      0.038854     Biso  1.000000 O
   Zr1        1.0     0.092863      0.092863      0.907137     Biso  1.000000 Zr
   Zr2        1.0     0.907137      0.907137      0.092863     Biso  1.000000 Zr
   Zr3        1.0     0.907137      0.092863      0.092863     Biso  1.000000 Zr
   Zr4        1.0     0.092863      0.907137      0.907137     Biso  1.000000 Zr
   Zr5        1.0     0.092863      0.907137      0.092863     Biso  1.000000 Zr
   Zr6        1.0     0.907137      0.092863      0.907137     Biso  1.000000 Zr
