data_I
_chemical_name_common  '/functionalized/UiO-66/cif/functionalized_UiO-66_CH3_2'
_cell_length_a 14.67267
_cell_length_b 14.67267
_cell_length_c 14.67267
_cell_angle_alpha 60.00000
_cell_angle_beta  60.00000
_cell_angle_gamma 60.00000
_space_group_name_H-M_alt      'P 1'


loop_
_space_group_symop_operation_xyz
  'x, y, z'

loop_
_atom_site_label
_atom_site_fract_x
_atom_site_fract_y
_atom_site_fract_z
_atom_site_type_symbol
C     -0.45960615840697305 -0.07574972047624004 0.08905211726654794     C
C     -0.45960615840697305 -0.07574972047624003 0.4463037616166652     C
C     -0.45960615840697316 0.44630376161666524 -0.07574972047624003     C
C     -0.45960615840697305 0.08905211726654792 -0.07574972047624005     C
C     -0.45960615840697305 0.08905211726654792 0.4463037616166652     C
C     -0.459606158406973 0.4463037616166652 0.08905211726654794     C
H     -0.4203917654417524 0.15237925664159976 -0.13921645142072733     H
H     -0.4203917654417524 0.15237925664159974 0.40722896022087995     H
H     -0.42039176544175233 0.40722896022087995 0.15237925664159976     H
C     -0.4118676468761061 0.39944212669512663 0.006212760090489745     C
C     -0.41186764687610605 0.006212760090489745 0.0062127600904897315     C
C     -0.4118676468761061 0.006212760090489729 0.39944212669512674     C
C     -0.3088165682698261 0.004048148718604874 0.004048148718604868     C
C     -0.3088165682698262 0.004048148718604874 0.3007202708326165     C
C     -0.30881656826982623 0.3007202708326165 0.004048148718604872     C
O     -0.26724722207022783 -0.07472637229222977 0.07989233042936958     O
O     -0.26724722207022783 -0.07472637229222975 0.26208126393308806     O
O     -0.2672472220702279 0.0798923304293696 -0.07472637229222978     O
O     -0.2672472220702279 0.0798923304293696 0.26208126393308806     O
O     -0.26724722207022783 0.26208126393308806 -0.07472637229222975     O
O     -0.2672472220702279 0.26208126393308806 0.07989233042936959     O
O     -0.15125375508900615 0.05041791836300206 0.05041791836300206     O
H     -0.13921645142072733 -0.42039176544175244 0.15237925664159976     H
H     -0.13921645142072733 -0.42039176544175244 0.40722896022088     H
H     -0.13921645142072728 0.15237925664159976 -0.42039176544175244     H
Zr    -0.1197958266614705 -0.11979582666147053 0.11979582666147053    Zr
Zr    -0.11979582666147051 0.11979582666147053 -0.11979582666147053    Zr
Zr    -0.11979582666147051 0.11979582666147051 0.11979582666147053    Zr
H     -0.09439580954463425 -0.09439580954463425 -0.09439580954463428     H
H     -0.09439580954463427 -0.09439580954463428 0.2831874286339028     H
H     -0.09439580954463425 0.2831874286339028 -0.09439580954463428     H
C     -0.07574972047624004 0.44630376161666524 -0.4596061584069731     C
C     -0.07574972047624004 0.4463037616166652 0.08905211726654792     C
C     -0.07574972047624005 -0.4596061584069731 0.4463037616166652     C
C     -0.07574972047624003 0.08905211726654792 0.4463037616166652     C
C     -0.07574972047623998 0.08905211726654795 -0.45960615840697316     C
C     -0.07574972047624001 -0.4596061584069731 0.08905211726654794     C
O     -0.07472637229222977 0.0798923304293696 0.26208126393308806     O
O     -0.07472637229222974 0.26208126393308806 -0.2672472220702279     O
O     -0.07472637229222975 0.26208126393308806 0.07989233042936959     O
O     -0.07472637229222977 -0.26724722207022783 0.07989233042936958     O
O     -0.07472637229222977 -0.2672472220702279 0.26208126393308806     O
O     -0.07472637229222974 0.07989233042936959 -0.2672472220702279     O
O     -0.06730802701012735 -0.06730802701012736 -0.06730802701012736     O
O     -0.06730802701012735 -0.06730802701012738 0.2019240810303821     O
O     -0.06730802701012735 0.20192408103038206 -0.06730802701012736     O
C     0.004048148718604846 0.00404814871860486 0.3007202708326165     C
C     0.004048148718604846 0.3007202708326165 -0.30881656826982623     C
C     0.004048148718604842 0.3007202708326165 0.004048148718604875     C
C     0.004048148718604874 0.004048148718604874 -0.30881656826982623     C
C     0.004048148718604872 -0.30881656826982623 0.004048148718604868     C
C     0.004048148718604888 -0.30881656826982623 0.3007202708326165     C
C     0.006212760090489729 0.006212760090489729 0.39944212669512674     C
C     0.00621276009048977 0.39944212669512674 -0.4118676468761062     C
C     0.0062127600904897645 0.39944212669512663 0.006212760090489745     C
C     0.006212760090489726 -0.41186764687610616 0.0062127600904897315     C
C     0.006212760090489701 -0.41186764687610616 0.39944212669512674     C
C     0.006212760090489742 0.006212760090489742 -0.4118676468761062     C
O     0.050417918363002044 0.05041791836300206 0.05041791836300206     O
O     0.05041791836300205 -0.15125375508900618 0.05041791836300205     O
O     0.05041791836300206 0.05041791836300206 -0.15125375508900618     O
O     0.07989233042936958 -0.07472637229222975 0.26208126393308806     O
O     0.07989233042936959 0.26208126393308806 -0.2672472220702279     O
O     0.07989233042936958 0.26208126393308806 -0.07472637229222975     O
O     0.07989233042936957 -0.26724722207022783 -0.07472637229222978     O
O     0.07989233042936958 -0.2672472220702279 0.26208126393308806     O
O     0.07989233042936958 -0.07472637229222974 -0.2672472220702279     O
C     0.08905211726654794 -0.4596061584069731 -0.07574972047624005     C
C     0.08905211726654792 -0.4596061584069731 0.4463037616166652     C
C     0.08905211726654791 -0.07574972047624004 0.44630376161666524     C
C     0.08905211726654792 -0.07574972047624004 -0.4596061584069731     C
C     0.08905211726654796 0.44630376161666524 -0.45960615840697316     C
C     0.08905211726654799 0.4463037616166652 -0.07574972047624001     C
Zr    0.11979582666147051 -0.11979582666147051 -0.11979582666147053    Zr
Zr    0.11979582666147051 -0.11979582666147053 0.11979582666147053    Zr
Zr    0.1197958266614705 0.11979582666147053 -0.11979582666147053    Zr
H     0.1523792566415997 -0.13921645142072733 0.40722896022088     H
H     0.1523792566415997 0.40722896022088007 -0.42039176544175244     H
H     0.1523792566415997 0.40722896022088 -0.13921645142072733     H
O     0.20192408103038206 -0.06730802701012736 -0.06730802701012736     O
O     0.26208126393308806 -0.26724722207022783 -0.07472637229222978     O
O     0.262081263933088 -0.26724722207022783 0.07989233042936958     O
O     0.26208126393308806 -0.07472637229222974 -0.2672472220702279     O
O     0.26208126393308806 -0.07472637229222977 0.07989233042936959     O
O     0.262081263933088 0.07989233042936959 -0.2672472220702279     O
O     0.262081263933088 0.07989233042936959 -0.07472637229222975     O
H     0.2831874286339027 -0.09439580954463425 -0.09439580954463428     H
C     0.30072027083261643 -0.30881656826982623 0.004048148718604865     C
C     0.3007202708326165 0.004048148718604888 -0.30881656826982623     C
C     0.3007202708326165 0.004048148718604867 0.004048148718604875     C
C     0.3994421266951267 -0.4118676468761062 0.0062127600904897315     C
C     0.3994421266951267 0.006212760090489742 -0.4118676468761062     C
C     0.3994421266951267 0.0062127600904897315 0.006212760090489745     C
H     0.4072289602208799 -0.4203917654417524 -0.13921645142072733     H
H     0.40722896022088 -0.13921645142072733 -0.42039176544175244     H
H     0.40722896022087995 -0.13921645142072733 0.15237925664159976     H
C     0.4463037616166652 -0.4596061584069731 -0.07574972047624004     C
C     0.4463037616166652 -0.07574972047624004 -0.4596061584069731     C
C     0.44630376161666513 -0.07574972047624004 0.08905211726654792     C
C     0.4463037616166652 0.08905211726654796 -0.45960615840697316     C
C     0.44630376161666513 0.08905211726654795 -0.07574972047624004     C
C     0.44630376161666524 -0.4596061584069731 0.08905211726654792     C
C     -0.40574341700173816 -0.1629241444111053 0.17603480587062478     C
H     -0.38074807203914646 -0.24378173208829623 0.17303909365701647     H
H     -0.4640444262055285 -0.15920462167028082 0.2568680801906538     H
H     -0.3340554298731955 -0.1479040610987521 0.16017843309717217     H
C     -0.6073672444577813 0.17603480587062473 -0.16292414441110528     C
H     -0.691488183831949 0.2208509231910118 -0.12353979767627564     H
H     -0.6072836848437897 0.1364592814192624 -0.20755976016076977     H
H     -0.5615737382316267 0.23277668367910703 -0.21979181954709504     H
C     -0.4057434170017381 -0.16292414441110525 0.3926327555422187     C
H     -0.32161670173648016 -0.20756062674805464 0.3927180561143581     H
H     -0.40582120167085195 -0.12353980385319796 0.3085109499000613     H
H     -0.45141184670818413 -0.21979110032641833 0.43842554096057423     H
C     -0.6073672444577812 0.17603480587062467 0.5942565829982619     C
H     -0.6336204348979954 0.25686753563548886 0.5359561164814963     H
H     -0.5485087710362624 0.17304050897797238 0.6192505200407232     H
H     -0.6782182135714094 0.16017771552333432 0.6659452831413102     H
C     0.5942565829982619 -0.6073672444577813 -0.16292414441110525     C
H     0.5941770583172129 -0.6914881838319489 -0.12353979767627575     H
H     0.6783841635852972 -0.6072836848437897 -0.20755976016076957     H
H     0.5485888740996151 -0.5615737382316268 -0.21979181954709515     H
C     0.39263275554221866 -0.4057434170017382 0.17603480587062473     C
H     0.45149071047042605 -0.38074807203914623 0.1730390936570164     H
H     0.3663809676851556 -0.4640444262055286 0.25686808019065377     H
H     0.32178105787477523 -0.3340554298731956 0.16017843309717214     H
C     -0.1629241444111052 0.39263275554221877 -0.40574341700173816     C
H     -0.15920321721898964 0.3663795651020045 -0.46404388351850373     H
H     -0.2437822579824332 0.45149122896373745 -0.38074947995927666     H
H     -0.1479047850932348 0.3217817864285905 -0.3340547168586899     H
C     0.17603480587062464 0.594256582998262 -0.6073672444577815     C
H     0.1364592723701767 0.6783832982635198 -0.6072819438856419     H
H     0.22085005562398863 0.5941787983291481 -0.6914890500999388     H
H     0.23277740607402822 0.548588153291816 -0.5615744590394259     H
C     -0.16292414441110523 0.3926327555422186 0.1760348058706247     C
H     -0.12353979767627558 0.308511816168051 0.22085092319101177     H
H     -0.2075597601607697 0.3927163151562103 0.1364592814192623     H
H     -0.21979181954709492 0.438426261768373 0.23277668367910703     H
C     0.1760348058706247 0.5942565829982618 -0.1629241444111052     C
H     0.1730390936570164 0.6192519279608536 -0.24378173208829618     H
H     0.2568680801906537 0.5359555737944716 -0.15920462167028077     H
H     0.16017843309717195 0.6659445701268046 -0.14790406109875187     H
C     -0.16292414441110523 0.17603480587062464 0.39263275554221866     C
H     -0.20756062674805456 0.1364592723701767 0.39271805611435806     H
H     -0.12353980385319788 0.22085005562398857 0.30851094990006117     H
H     -0.21979110032641833 0.23277740607402833 0.43842554096057407     H
C     0.17603480587062473 -0.1629241444111052 0.5942565829982619     C
H     0.1364592723701768 -0.20756062674805467 0.6783832982635197     H
H     0.22085005562398863 -0.12353980385319786 0.594178798329148     H
H     0.23277740607402836 -0.2197911003264183 0.5485881532918159     H
