data_I
_chemical_name_common  '/functionalized/UiO-66/cif/functionalized_UiO-66_CN_2'
_cell_length_a 14.67267
_cell_length_b 14.67267
_cell_length_c 14.67267
_cell_angle_alpha 60.00000
_cell_angle_beta  60.00000
_cell_angle_gamma 60.00000
_space_group_name_H-M_alt      'P 1'


loop_
_space_group_symop_operation_xyz
  'x, y, z'

loop_
_atom_site_label
_atom_site_fract_x
_atom_site_fract_y
_atom_site_fract_z
_atom_site_type_symbol
C     -0.45960615840697305 -0.07574972047624004 0.08905211726654794     C
C     -0.45960615840697305 -0.07574972047624003 0.4463037616166652     C
C     -0.45960615840697316 0.44630376161666524 -0.07574972047624003     C
C     -0.45960615840697305 0.08905211726654792 -0.07574972047624005     C
C     -0.45960615840697305 0.08905211726654792 0.4463037616166652     C
C     -0.459606158406973 0.4463037616166652 0.08905211726654794     C
H     -0.4203917654417524 0.15237925664159976 -0.13921645142072733     H
H     -0.4203917654417524 0.15237925664159974 0.40722896022087995     H
H     -0.42039176544175233 0.40722896022087995 0.15237925664159976     H
C     -0.4118676468761061 0.39944212669512663 0.006212760090489745     C
C     -0.41186764687610605 0.006212760090489745 0.0062127600904897315     C
C     -0.4118676468761061 0.006212760090489729 0.39944212669512674     C
C     -0.3088165682698261 0.004048148718604874 0.004048148718604868     C
C     -0.3088165682698262 0.004048148718604874 0.3007202708326165     C
C     -0.30881656826982623 0.3007202708326165 0.004048148718604872     C
O     -0.26724722207022783 -0.07472637229222977 0.07989233042936958     O
O     -0.26724722207022783 -0.07472637229222975 0.26208126393308806     O
O     -0.2672472220702279 0.0798923304293696 -0.07472637229222978     O
O     -0.2672472220702279 0.0798923304293696 0.26208126393308806     O
O     -0.26724722207022783 0.26208126393308806 -0.07472637229222975     O
O     -0.2672472220702279 0.26208126393308806 0.07989233042936959     O
O     -0.15125375508900615 0.05041791836300206 0.05041791836300206     O
H     -0.13921645142072733 -0.42039176544175244 0.15237925664159976     H
H     -0.13921645142072733 -0.42039176544175244 0.40722896022088     H
H     -0.13921645142072728 0.15237925664159976 -0.42039176544175244     H
Zr    -0.1197958266614705 -0.11979582666147053 0.11979582666147053    Zr
Zr    -0.11979582666147051 0.11979582666147053 -0.11979582666147053    Zr
Zr    -0.11979582666147051 0.11979582666147051 0.11979582666147053    Zr
H     -0.09439580954463425 -0.09439580954463425 -0.09439580954463428     H
H     -0.09439580954463427 -0.09439580954463428 0.2831874286339028     H
H     -0.09439580954463425 0.2831874286339028 -0.09439580954463428     H
C     -0.07574972047624004 0.44630376161666524 -0.4596061584069731     C
C     -0.07574972047624004 0.4463037616166652 0.08905211726654792     C
C     -0.07574972047624005 -0.4596061584069731 0.4463037616166652     C
C     -0.07574972047624003 0.08905211726654792 0.4463037616166652     C
C     -0.07574972047623998 0.08905211726654795 -0.45960615840697316     C
C     -0.07574972047624001 -0.4596061584069731 0.08905211726654794     C
O     -0.07472637229222977 0.0798923304293696 0.26208126393308806     O
O     -0.07472637229222974 0.26208126393308806 -0.2672472220702279     O
O     -0.07472637229222975 0.26208126393308806 0.07989233042936959     O
O     -0.07472637229222977 -0.26724722207022783 0.07989233042936958     O
O     -0.07472637229222977 -0.2672472220702279 0.26208126393308806     O
O     -0.07472637229222974 0.07989233042936959 -0.2672472220702279     O
O     -0.06730802701012735 -0.06730802701012736 -0.06730802701012736     O
O     -0.06730802701012735 -0.06730802701012738 0.2019240810303821     O
O     -0.06730802701012735 0.20192408103038206 -0.06730802701012736     O
C     0.004048148718604846 0.00404814871860486 0.3007202708326165     C
C     0.004048148718604846 0.3007202708326165 -0.30881656826982623     C
C     0.004048148718604842 0.3007202708326165 0.004048148718604875     C
C     0.004048148718604874 0.004048148718604874 -0.30881656826982623     C
C     0.004048148718604872 -0.30881656826982623 0.004048148718604868     C
C     0.004048148718604888 -0.30881656826982623 0.3007202708326165     C
C     0.006212760090489729 0.006212760090489729 0.39944212669512674     C
C     0.00621276009048977 0.39944212669512674 -0.4118676468761062     C
C     0.0062127600904897645 0.39944212669512663 0.006212760090489745     C
C     0.006212760090489726 -0.41186764687610616 0.0062127600904897315     C
C     0.006212760090489701 -0.41186764687610616 0.39944212669512674     C
C     0.006212760090489742 0.006212760090489742 -0.4118676468761062     C
O     0.050417918363002044 0.05041791836300206 0.05041791836300206     O
O     0.05041791836300205 -0.15125375508900618 0.05041791836300205     O
O     0.05041791836300206 0.05041791836300206 -0.15125375508900618     O
O     0.07989233042936958 -0.07472637229222975 0.26208126393308806     O
O     0.07989233042936959 0.26208126393308806 -0.2672472220702279     O
O     0.07989233042936958 0.26208126393308806 -0.07472637229222975     O
O     0.07989233042936957 -0.26724722207022783 -0.07472637229222978     O
O     0.07989233042936958 -0.2672472220702279 0.26208126393308806     O
O     0.07989233042936958 -0.07472637229222974 -0.2672472220702279     O
C     0.08905211726654794 -0.4596061584069731 -0.07574972047624005     C
C     0.08905211726654792 -0.4596061584069731 0.4463037616166652     C
C     0.08905211726654791 -0.07574972047624004 0.44630376161666524     C
C     0.08905211726654792 -0.07574972047624004 -0.4596061584069731     C
C     0.08905211726654796 0.44630376161666524 -0.45960615840697316     C
C     0.08905211726654799 0.4463037616166652 -0.07574972047624001     C
Zr    0.11979582666147051 -0.11979582666147051 -0.11979582666147053    Zr
Zr    0.11979582666147051 -0.11979582666147053 0.11979582666147053    Zr
Zr    0.1197958266614705 0.11979582666147053 -0.11979582666147053    Zr
H     0.1523792566415997 -0.13921645142072733 0.40722896022088     H
H     0.1523792566415997 0.40722896022088007 -0.42039176544175244     H
H     0.1523792566415997 0.40722896022088 -0.13921645142072733     H
O     0.20192408103038206 -0.06730802701012736 -0.06730802701012736     O
O     0.26208126393308806 -0.26724722207022783 -0.07472637229222978     O
O     0.262081263933088 -0.26724722207022783 0.07989233042936958     O
O     0.26208126393308806 -0.07472637229222974 -0.2672472220702279     O
O     0.26208126393308806 -0.07472637229222977 0.07989233042936959     O
O     0.262081263933088 0.07989233042936959 -0.2672472220702279     O
O     0.262081263933088 0.07989233042936959 -0.07472637229222975     O
H     0.2831874286339027 -0.09439580954463425 -0.09439580954463428     H
C     0.30072027083261643 -0.30881656826982623 0.004048148718604865     C
C     0.3007202708326165 0.004048148718604888 -0.30881656826982623     C
C     0.3007202708326165 0.004048148718604867 0.004048148718604875     C
C     0.3994421266951267 -0.4118676468761062 0.0062127600904897315     C
C     0.3994421266951267 0.006212760090489742 -0.4118676468761062     C
C     0.3994421266951267 0.0062127600904897315 0.006212760090489745     C
H     0.4072289602208799 -0.4203917654417524 -0.13921645142072733     H
H     0.40722896022088 -0.13921645142072733 -0.42039176544175244     H
H     0.40722896022087995 -0.13921645142072733 0.15237925664159976     H
C     0.4463037616166652 -0.4596061584069731 -0.07574972047624004     C
C     0.4463037616166652 -0.07574972047624004 -0.4596061584069731     C
C     0.44630376161666513 -0.07574972047624004 0.08905211726654792     C
C     0.4463037616166652 0.08905211726654796 -0.45960615840697316     C
C     0.44630376161666513 0.08905211726654795 -0.07574972047624004     C
C     0.44630376161666524 -0.4596061584069731 0.08905211726654792     C
C     -0.4084533423726272 -0.15853825210502273 0.17165856009243596     C
N     -0.36682285598797326 -0.22591510544587962 0.23888779164859625     N
C     -0.604666965614786 0.171658560092436 -0.15853825210502276     C
N     -0.6461489095085564 0.23888743362766907 -0.22591589151259148     N
C     -0.40845334237262715 -0.15853825210502273 0.39533303438521405     C
N     -0.3668232057111248 -0.2259153196698872 0.3538505173868396     N
C     -0.6046669656147858 0.17165856009243582 0.5915466576273728     C
N     -0.646149250951386 0.2388872211152713 0.6331777109202877     N
C     0.5915466576273728 -0.604666965614786 -0.1585382521050228     C
N     0.6331773673934792 -0.6461489095085565 -0.22591589151259156     N
C     0.39533303438521394 -0.4084533423726273 0.17165856009243596     C
N     0.3538501697852565 -0.3668228559879732 0.23888779164859616     N
C     -0.15853825210502268 0.39533303438521405 -0.4084533423726272     C
N     -0.225915681084173 0.3538507490486138 -0.3668222890797122     N
C     0.17165856009243588 0.5915466576273728 -0.6046669656147861     C
N     0.23888800799417242 0.6331767942888752 -0.6461494826131605     N
C     -0.15853825210502268 0.39533303438521394 0.1716585600924359     C
N     -0.22591589151259142 0.3538510904914435 0.23888743362766895     N
C     0.1716585600924359 0.5915466576273728 -0.15853825210502265     C
N     0.238887791648596 0.633177144012027 -0.22591510544587948     N
C     -0.1585382521050227 0.17165856009243585 0.395333034385214     C
N     -0.22591531966988712 0.2388880079941724 0.35385051738683954     N
C     0.17165856009243596 -0.1585382521050227 0.5915466576273728     C
N     0.23888800799417262 -0.22591531966988715 0.6331767942888751     N
