data_I
_chemical_name_common  '/UiO-66_functionalized/UiO-66//cif/functionalized_UiO-66_CF3_2'
_cell_length_a 14.67267
_cell_length_b 14.67267
_cell_length_c 14.67267
_cell_angle_alpha 60.00000
_cell_angle_beta  60.00000
_cell_angle_gamma 60.00000
_space_group_name_H-M_alt      'P 1'


loop_
_space_group_symop_operation_xyz
  'x, y, z'

loop_
_atom_site_label
_atom_site_fract_x
_atom_site_fract_y
_atom_site_fract_z
_atom_site_type_symbol
C     -0.45960615840697305 -0.07574972047624004 0.08905211726654794     C
C     -0.45960615840697305 -0.07574972047624003 0.4463037616166652     C
C     -0.45960615840697316 0.44630376161666524 -0.07574972047624003     C
C     -0.45960615840697305 0.08905211726654792 -0.07574972047624005     C
C     -0.45960615840697305 0.08905211726654792 0.4463037616166652     C
C     -0.459606158406973 0.4463037616166652 0.08905211726654794     C
H     -0.4203917654417524 0.15237925664159976 -0.13921645142072733     H
H     -0.4203917654417524 0.15237925664159974 0.40722896022087995     H
H     -0.42039176544175233 0.40722896022087995 0.15237925664159976     H
C     -0.4118676468761061 0.39944212669512663 0.006212760090489745     C
C     -0.41186764687610605 0.006212760090489745 0.0062127600904897315     C
C     -0.4118676468761061 0.006212760090489729 0.39944212669512674     C
C     -0.3088165682698261 0.004048148718604874 0.004048148718604868     C
C     -0.3088165682698262 0.004048148718604874 0.3007202708326165     C
C     -0.30881656826982623 0.3007202708326165 0.004048148718604872     C
O     -0.26724722207022783 -0.07472637229222977 0.07989233042936958     O
O     -0.26724722207022783 -0.07472637229222975 0.26208126393308806     O
O     -0.2672472220702279 0.0798923304293696 -0.07472637229222978     O
O     -0.2672472220702279 0.0798923304293696 0.26208126393308806     O
O     -0.26724722207022783 0.26208126393308806 -0.07472637229222975     O
O     -0.2672472220702279 0.26208126393308806 0.07989233042936959     O
O     -0.15125375508900615 0.05041791836300206 0.05041791836300206     O
H     -0.13921645142072733 -0.42039176544175244 0.15237925664159976     H
H     -0.13921645142072733 -0.42039176544175244 0.40722896022088     H
H     -0.13921645142072728 0.15237925664159976 -0.42039176544175244     H
Zr    -0.1197958266614705 -0.11979582666147053 0.11979582666147053    Zr
Zr    -0.11979582666147051 0.11979582666147053 -0.11979582666147053    Zr
Zr    -0.11979582666147051 0.11979582666147051 0.11979582666147053    Zr
H     -0.09439580954463425 -0.09439580954463425 -0.09439580954463428     H
H     -0.09439580954463427 -0.09439580954463428 0.2831874286339028     H
H     -0.09439580954463425 0.2831874286339028 -0.09439580954463428     H
C     -0.07574972047624004 0.44630376161666524 -0.4596061584069731     C
C     -0.07574972047624004 0.4463037616166652 0.08905211726654792     C
C     -0.07574972047624005 -0.4596061584069731 0.4463037616166652     C
C     -0.07574972047624003 0.08905211726654792 0.4463037616166652     C
C     -0.07574972047623998 0.08905211726654795 -0.45960615840697316     C
C     -0.07574972047624001 -0.4596061584069731 0.08905211726654794     C
O     -0.07472637229222977 0.0798923304293696 0.26208126393308806     O
O     -0.07472637229222974 0.26208126393308806 -0.2672472220702279     O
O     -0.07472637229222975 0.26208126393308806 0.07989233042936959     O
O     -0.07472637229222977 -0.26724722207022783 0.07989233042936958     O
O     -0.07472637229222977 -0.2672472220702279 0.26208126393308806     O
O     -0.07472637229222974 0.07989233042936959 -0.2672472220702279     O
O     -0.06730802701012735 -0.06730802701012736 -0.06730802701012736     O
O     -0.06730802701012735 -0.06730802701012738 0.2019240810303821     O
O     -0.06730802701012735 0.20192408103038206 -0.06730802701012736     O
C     0.004048148718604846 0.00404814871860486 0.3007202708326165     C
C     0.004048148718604846 0.3007202708326165 -0.30881656826982623     C
C     0.004048148718604842 0.3007202708326165 0.004048148718604875     C
C     0.004048148718604874 0.004048148718604874 -0.30881656826982623     C
C     0.004048148718604872 -0.30881656826982623 0.004048148718604868     C
C     0.004048148718604888 -0.30881656826982623 0.3007202708326165     C
C     0.006212760090489729 0.006212760090489729 0.39944212669512674     C
C     0.00621276009048977 0.39944212669512674 -0.4118676468761062     C
C     0.0062127600904897645 0.39944212669512663 0.006212760090489745     C
C     0.006212760090489726 -0.41186764687610616 0.0062127600904897315     C
C     0.006212760090489701 -0.41186764687610616 0.39944212669512674     C
C     0.006212760090489742 0.006212760090489742 -0.4118676468761062     C
O     0.050417918363002044 0.05041791836300206 0.05041791836300206     O
O     0.05041791836300205 -0.15125375508900618 0.05041791836300205     O
O     0.05041791836300206 0.05041791836300206 -0.15125375508900618     O
O     0.07989233042936958 -0.07472637229222975 0.26208126393308806     O
O     0.07989233042936959 0.26208126393308806 -0.2672472220702279     O
O     0.07989233042936958 0.26208126393308806 -0.07472637229222975     O
O     0.07989233042936957 -0.26724722207022783 -0.07472637229222978     O
O     0.07989233042936958 -0.2672472220702279 0.26208126393308806     O
O     0.07989233042936958 -0.07472637229222974 -0.2672472220702279     O
C     0.08905211726654794 -0.4596061584069731 -0.07574972047624005     C
C     0.08905211726654792 -0.4596061584069731 0.4463037616166652     C
C     0.08905211726654791 -0.07574972047624004 0.44630376161666524     C
C     0.08905211726654792 -0.07574972047624004 -0.4596061584069731     C
C     0.08905211726654796 0.44630376161666524 -0.45960615840697316     C
C     0.08905211726654799 0.4463037616166652 -0.07574972047624001     C
Zr    0.11979582666147051 -0.11979582666147051 -0.11979582666147053    Zr
Zr    0.11979582666147051 -0.11979582666147053 0.11979582666147053    Zr
Zr    0.1197958266614705 0.11979582666147053 -0.11979582666147053    Zr
H     0.1523792566415997 -0.13921645142072733 0.40722896022088     H
H     0.1523792566415997 0.40722896022088007 -0.42039176544175244     H
H     0.1523792566415997 0.40722896022088 -0.13921645142072733     H
O     0.20192408103038206 -0.06730802701012736 -0.06730802701012736     O
O     0.26208126393308806 -0.26724722207022783 -0.07472637229222978     O
O     0.262081263933088 -0.26724722207022783 0.07989233042936958     O
O     0.26208126393308806 -0.07472637229222974 -0.2672472220702279     O
O     0.26208126393308806 -0.07472637229222977 0.07989233042936959     O
O     0.262081263933088 0.07989233042936959 -0.2672472220702279     O
O     0.262081263933088 0.07989233042936959 -0.07472637229222975     O
H     0.2831874286339027 -0.09439580954463425 -0.09439580954463428     H
C     0.30072027083261643 -0.30881656826982623 0.004048148718604865     C
C     0.3007202708326165 0.004048148718604888 -0.30881656826982623     C
C     0.3007202708326165 0.004048148718604867 0.004048148718604875     C
C     0.3994421266951267 -0.4118676468761062 0.0062127600904897315     C
C     0.3994421266951267 0.006212760090489742 -0.4118676468761062     C
C     0.3994421266951267 0.0062127600904897315 0.006212760090489745     C
H     0.4072289602208799 -0.4203917654417524 -0.13921645142072733     H
H     0.40722896022088 -0.13921645142072733 -0.42039176544175244     H
H     0.40722896022087995 -0.13921645142072733 0.15237925664159976     H
C     0.4463037616166652 -0.4596061584069731 -0.07574972047624004     C
C     0.4463037616166652 -0.07574972047624004 -0.4596061584069731     C
C     0.44630376161666513 -0.07574972047624004 0.08905211726654792     C
C     0.4463037616166652 0.08905211726654796 -0.45960615840697316     C
C     0.44630376161666513 0.08905211726654795 -0.07574972047624004     C
C     0.44630376161666524 -0.4596061584069731 0.08905211726654792     C
C     -0.4059443731913677 -0.16259890585825648 0.17571028266201     C
F     -0.46395474615809473 -0.23329763888269966 0.25725831035220775     F
F     -0.3943323499519028 -0.11768729156351014 0.22955061485788372     F
F     -0.30157655979547765 -0.2287683536623089 0.1318577572835204     F
C     -0.6071670036123856 0.17571028266201 -0.16259890585825648     C
F     -0.6938702502303888 0.1577883371740808 -0.1545914891520425     F
F     -0.5345197007255988 0.1819937872155778 -0.2683920192480232     F
F     -0.6492630012200648 0.2800897907876132 -0.15755173167498546     F
C     -0.40594437319136767 -0.16259890585825648 0.39283299638761426     C
F     -0.31926964896358995 -0.1446703312485157 0.29618669859767044     F
F     -0.4784680462967972 -0.16922487482235088 0.36609432021955973     F
F     -0.3637392828552679 -0.2668463235902847 0.4602727738172302     F
C     -0.6071670036123856 0.1757102826620099 0.5940556268086323     C
F     -0.5499560231397891 0.24735986946721525 0.5458808018544478     F
F     -0.6170769628521173 0.13061053887319574 0.703979078991155     F
F     -0.7122257230397498 0.24090209138673888 0.5900719537402233     F
C     0.5940556268086323 -0.6071670036123857 -0.16259890585825654     C
F     0.6906734022083506 -0.6938702502303888 -0.15459148915204238     F
F     0.6209179327580445 -0.5345197007255988 -0.26839201924802314     F
F     0.5267249421074373 -0.6492630012200646 -0.15755173167498576     F
C     0.3928329963876142 -0.4059443731913678 0.17571028266201     C
F     0.43999407468858664 -0.46395474615809473 0.2572583103522077     F
F     0.28246902665752915 -0.39433234995190297 0.22955061485788372     F
F     0.398487156174266 -0.30157655979547765 0.13185775728352037     F
C     -0.16259890585825645 0.3928329963876142 0.17571028266200991     C
F     -0.15459148915204246 0.30612974976961105 0.15778833717408067     F
F     -0.2683920192480232 0.465480299274401 0.18199378721557777     F
F     -0.15755173167498546 0.35073699877993514 0.28008979078761315     F
C     0.17571028266200994 0.5940556268086323 -0.16259890585825643     C
F     0.2572583103522077 0.5360452538419054 -0.23329763888269964     F
F     0.2295506148578835 0.6056676500480972 -0.11768729156350996     F
F     0.1318577572835202 0.6984234402045224 -0.22876835366230874     F
C     -0.16259890585825645 0.39283299638761426 -0.4059443731913677     C
F     -0.24328464818187376 0.4500439768602108 -0.45411919814555224     F
F     -0.21751265501223335 0.3829230371478825 -0.2960209210088449     F
F     -0.11874832208721209 0.28777427696025015 -0.40992804625977686     F
C     0.17571028266200994 0.5940556268086323 -0.6071670036123858     C
F     0.16775328161443512 0.6807303510364101 -0.7038133014023296     F
F     0.2815986008995883 0.5215319537032029 -0.6339056797804404     F
F     0.1703128326283225 0.6362607171447321 -0.5397272261827699     F
C     -0.16259890585825645 0.1757102826620099 0.3928329963876142     C
F     -0.14467033124851564 0.1677532816144351 0.29618669859767044     F
F     -0.16922487482235082 0.2815986008995884 0.3660943202195595     F
F     -0.2668463235902847 0.17031283262832247 0.46027277381723014     F
C     0.17571028266200997 -0.16259890585825645 0.5940556268086322     C
F     0.1677532816144352 -0.1446703312485157 0.68073035103641     F
F     0.2815986008995884 -0.1692248748223507 0.5215319537032027     F
F     0.17031283262832267 -0.26684632359028476 0.636260717144732     F
