data_I
_chemical_name_common  '/UiO-66_functionalized/UiO-66//cif/functionalized_UiO-66_sulfonic_2'
_cell_length_a 14.67267
_cell_length_b 14.67267
_cell_length_c 14.67267
_cell_angle_alpha 60.00000
_cell_angle_beta  60.00000
_cell_angle_gamma 60.00000
_space_group_name_H-M_alt      'P 1'


loop_
_space_group_symop_operation_xyz
  'x, y, z'

loop_
_atom_site_label
_atom_site_fract_x
_atom_site_fract_y
_atom_site_fract_z
_atom_site_type_symbol
C     -0.45960615840697305 -0.07574972047624004 0.08905211726654794     C
C     -0.45960615840697305 -0.07574972047624003 0.4463037616166652     C
C     -0.45960615840697316 0.44630376161666524 -0.07574972047624003     C
C     -0.45960615840697305 0.08905211726654792 -0.07574972047624005     C
C     -0.45960615840697305 0.08905211726654792 0.4463037616166652     C
C     -0.459606158406973 0.4463037616166652 0.08905211726654794     C
H     -0.4203917654417524 0.15237925664159976 -0.13921645142072733     H
H     -0.4203917654417524 0.15237925664159974 0.40722896022087995     H
H     -0.42039176544175233 0.40722896022087995 0.15237925664159976     H
C     -0.4118676468761061 0.39944212669512663 0.006212760090489745     C
C     -0.41186764687610605 0.006212760090489745 0.0062127600904897315     C
C     -0.4118676468761061 0.006212760090489729 0.39944212669512674     C
C     -0.3088165682698261 0.004048148718604874 0.004048148718604868     C
C     -0.3088165682698262 0.004048148718604874 0.3007202708326165     C
C     -0.30881656826982623 0.3007202708326165 0.004048148718604872     C
O     -0.26724722207022783 -0.07472637229222977 0.07989233042936958     O
O     -0.26724722207022783 -0.07472637229222975 0.26208126393308806     O
O     -0.2672472220702279 0.0798923304293696 -0.07472637229222978     O
O     -0.2672472220702279 0.0798923304293696 0.26208126393308806     O
O     -0.26724722207022783 0.26208126393308806 -0.07472637229222975     O
O     -0.2672472220702279 0.26208126393308806 0.07989233042936959     O
O     -0.15125375508900615 0.05041791836300206 0.05041791836300206     O
H     -0.13921645142072733 -0.42039176544175244 0.15237925664159976     H
H     -0.13921645142072733 -0.42039176544175244 0.40722896022088     H
H     -0.13921645142072728 0.15237925664159976 -0.42039176544175244     H
Zr    -0.1197958266614705 -0.11979582666147053 0.11979582666147053    Zr
Zr    -0.11979582666147051 0.11979582666147053 -0.11979582666147053    Zr
Zr    -0.11979582666147051 0.11979582666147051 0.11979582666147053    Zr
H     -0.09439580954463425 -0.09439580954463425 -0.09439580954463428     H
H     -0.09439580954463427 -0.09439580954463428 0.2831874286339028     H
H     -0.09439580954463425 0.2831874286339028 -0.09439580954463428     H
C     -0.07574972047624004 0.44630376161666524 -0.4596061584069731     C
C     -0.07574972047624004 0.4463037616166652 0.08905211726654792     C
C     -0.07574972047624005 -0.4596061584069731 0.4463037616166652     C
C     -0.07574972047624003 0.08905211726654792 0.4463037616166652     C
C     -0.07574972047623998 0.08905211726654795 -0.45960615840697316     C
C     -0.07574972047624001 -0.4596061584069731 0.08905211726654794     C
O     -0.07472637229222977 0.0798923304293696 0.26208126393308806     O
O     -0.07472637229222974 0.26208126393308806 -0.2672472220702279     O
O     -0.07472637229222975 0.26208126393308806 0.07989233042936959     O
O     -0.07472637229222977 -0.26724722207022783 0.07989233042936958     O
O     -0.07472637229222977 -0.2672472220702279 0.26208126393308806     O
O     -0.07472637229222974 0.07989233042936959 -0.2672472220702279     O
O     -0.06730802701012735 -0.06730802701012736 -0.06730802701012736     O
O     -0.06730802701012735 -0.06730802701012738 0.2019240810303821     O
O     -0.06730802701012735 0.20192408103038206 -0.06730802701012736     O
C     0.004048148718604846 0.00404814871860486 0.3007202708326165     C
C     0.004048148718604846 0.3007202708326165 -0.30881656826982623     C
C     0.004048148718604842 0.3007202708326165 0.004048148718604875     C
C     0.004048148718604874 0.004048148718604874 -0.30881656826982623     C
C     0.004048148718604872 -0.30881656826982623 0.004048148718604868     C
C     0.004048148718604888 -0.30881656826982623 0.3007202708326165     C
C     0.006212760090489729 0.006212760090489729 0.39944212669512674     C
C     0.00621276009048977 0.39944212669512674 -0.4118676468761062     C
C     0.0062127600904897645 0.39944212669512663 0.006212760090489745     C
C     0.006212760090489726 -0.41186764687610616 0.0062127600904897315     C
C     0.006212760090489701 -0.41186764687610616 0.39944212669512674     C
C     0.006212760090489742 0.006212760090489742 -0.4118676468761062     C
O     0.050417918363002044 0.05041791836300206 0.05041791836300206     O
O     0.05041791836300205 -0.15125375508900618 0.05041791836300205     O
O     0.05041791836300206 0.05041791836300206 -0.15125375508900618     O
O     0.07989233042936958 -0.07472637229222975 0.26208126393308806     O
O     0.07989233042936959 0.26208126393308806 -0.2672472220702279     O
O     0.07989233042936958 0.26208126393308806 -0.07472637229222975     O
O     0.07989233042936957 -0.26724722207022783 -0.07472637229222978     O
O     0.07989233042936958 -0.2672472220702279 0.26208126393308806     O
O     0.07989233042936958 -0.07472637229222974 -0.2672472220702279     O
C     0.08905211726654794 -0.4596061584069731 -0.07574972047624005     C
C     0.08905211726654792 -0.4596061584069731 0.4463037616166652     C
C     0.08905211726654791 -0.07574972047624004 0.44630376161666524     C
C     0.08905211726654792 -0.07574972047624004 -0.4596061584069731     C
C     0.08905211726654796 0.44630376161666524 -0.45960615840697316     C
C     0.08905211726654799 0.4463037616166652 -0.07574972047624001     C
Zr    0.11979582666147051 -0.11979582666147051 -0.11979582666147053    Zr
Zr    0.11979582666147051 -0.11979582666147053 0.11979582666147053    Zr
Zr    0.1197958266614705 0.11979582666147053 -0.11979582666147053    Zr
H     0.1523792566415997 -0.13921645142072733 0.40722896022088     H
H     0.1523792566415997 0.40722896022088007 -0.42039176544175244     H
H     0.1523792566415997 0.40722896022088 -0.13921645142072733     H
O     0.20192408103038206 -0.06730802701012736 -0.06730802701012736     O
O     0.26208126393308806 -0.26724722207022783 -0.07472637229222978     O
O     0.262081263933088 -0.26724722207022783 0.07989233042936958     O
O     0.26208126393308806 -0.07472637229222974 -0.2672472220702279     O
O     0.26208126393308806 -0.07472637229222977 0.07989233042936959     O
O     0.262081263933088 0.07989233042936959 -0.2672472220702279     O
O     0.262081263933088 0.07989233042936959 -0.07472637229222975     O
H     0.2831874286339027 -0.09439580954463425 -0.09439580954463428     H
C     0.30072027083261643 -0.30881656826982623 0.004048148718604865     C
C     0.3007202708326165 0.004048148718604888 -0.30881656826982623     C
C     0.3007202708326165 0.004048148718604867 0.004048148718604875     C
C     0.3994421266951267 -0.4118676468761062 0.0062127600904897315     C
C     0.3994421266951267 0.006212760090489742 -0.4118676468761062     C
C     0.3994421266951267 0.0062127600904897315 0.006212760090489745     C
H     0.4072289602208799 -0.4203917654417524 -0.13921645142072733     H
H     0.40722896022088 -0.13921645142072733 -0.42039176544175244     H
H     0.40722896022087995 -0.13921645142072733 0.15237925664159976     H
C     0.4463037616166652 -0.4596061584069731 -0.07574972047624004     C
C     0.4463037616166652 -0.07574972047624004 -0.4596061584069731     C
C     0.44630376161666513 -0.07574972047624004 0.08905211726654792     C
C     0.4463037616166652 0.08905211726654796 -0.45960615840697316     C
C     0.44630376161666513 0.08905211726654795 -0.07574972047624004     C
C     0.44630376161666524 -0.4596061584069731 0.08905211726654792     C
S     -0.3958613982112751 -0.17891774727827034 0.1919932316916126     S
O     -0.3430114223678577 -0.1312492956461071 0.21143031983601146     O
O     -0.47389415911546146 -0.2362434144285346 0.28598161098694974     O
O     -0.29065783592066075 -0.26700633701104404 0.12973981615042163     O
H     -0.31804656169424794 -0.3139258577375777 0.12680818496591814     H
S     -0.6172140862020672 0.19199323169161253 -0.1789177472782703     S
O     -0.5320600952590373 0.2284586872736788 -0.2836361874429174     O
O     -0.6939398890721764 0.15451216682926033 -0.1770744115730985     O
O     -0.6896466304341844 0.3003683254860348 -0.1372954482118904     O
H     -0.7578201867879607 0.28899249682508643 -0.0753274988559845     H
S     -0.3958613982112749 -0.17891774727827034 0.38278591379793286     S
O     -0.28554892877840427 -0.17426936342415394 0.30256697278150096     O
O     -0.40891129078337957 -0.284893711786517 0.4690930412344712     O
O     -0.4689987098088988 -0.1334890459397026 0.3045977310564549     O
H     -0.5400502335408226 -0.14771982640781559 0.3516438263259438     H
S     -0.6172140862020671 0.19199323169161242 0.604138601788725     S
O     -0.6683404214822488 0.14363845866947936 0.7243497017839227     O
O     -0.5397796632410162 0.250460760137271 0.5614009987823917     O
O     -0.7237588653091668 0.2791370323090793 0.5608941903487996     O
H     -0.6975730482886471 0.3264900300485596 0.48354033493297     H
S     0.604138601788725 -0.6172140862020671 -0.1789177472782704     S
O     0.5872375954282762 -0.5320600952590372 -0.28363618744291746     O
O     0.7165021338160147 -0.6939398890721764 -0.17707441157309833     O
O     0.5265737531600403 -0.6896466304341843 -0.13729544821189074     O
H     0.544155188818859 -0.7578201867879606 -0.07532749885598485     H
S     0.38278591379793275 -0.3958613982112751 0.1919932316916125     S
O     0.2628303981779533 -0.34301142236785787 0.21143031983601143     O
O     0.4241559625570464 -0.47389415911546146 0.2859816109869497     O
O     0.4279243567812829 -0.2906578359206607 0.12973981615042154     O
H     0.5051642344659073 -0.3180465616942478 0.12680818496591803     H
S     -0.1789177472782703 0.38278591379793286 0.19199323169161245     S
O     -0.28363618744291735 0.4679399047409626 0.2284586872736788     O
O     -0.17707441157309847 0.30606011092782365 0.1545121668292602     O
O     -0.13729544821189033 0.31035336956581533 0.30036832548603476     O
H     -0.07532749885598446 0.2421798132120391 0.2889924968250863     H
S     0.19199323169161245 0.604138601788725 -0.17891774727827026     S
O     0.21143031983601118 0.6569885776321422 -0.1312492956461068     O
O     0.28598161098694974 0.5261058408845386 -0.2362434144285346     O
O     0.12973981615042146 0.7093421640793394 -0.26700633701104387     O
H     0.126808184965918 0.6819534383057522 -0.31392585773757764     H
S     -0.1789177472782703 0.38278591379793286 -0.39586139821127503     S
O     -0.199647738971153 0.331659578517751 -0.2756502982160774     O
O     -0.2720820956786464 0.46022033675898366 -0.43859900121760825     O
O     -0.11627235734871198 0.2762411346908332 -0.4391058096512005     O
H     -0.11245731669288217 0.3024269517113529 -0.5164596650670302     H
S     0.19199323169161242 0.6041386017887251 -0.6172140862020672     S
O     0.1572513194210571 0.7144510712215958 -0.6974330272184991     O
O     0.22471196133542537 0.5910887092166205 -0.530906958765529     O
O     0.2978900246921466 0.5310012901911012 -0.6954022689435453     O
H     0.33612623362269434 0.4599497664591776 -0.6483561736740563     H
S     -0.17891774727827026 0.1919932316916124 0.38278591379793275     S
O     -0.2156887432927126 0.29670601408824204 0.3998425192585786     O
O     -0.1414720400236971 0.1902716676742699 0.270379174730618     O
O     -0.28703553244117547 0.14996737084460154 0.4604238890011746     O
H     -0.27546761572389167 0.08796907150839163 0.44276158430434015     H
S     0.19199323169161248 -0.17891774727827028 0.604138601788725     S
O     0.15725131942105725 -0.17426936342415394 0.7144510712215958     O
O     0.2247119613354256 -0.2848937117865169 0.5910887092166204     O
O     0.29789002469214654 -0.1334890459397024 0.5310012901911011     O
H     0.33612623362269434 -0.1477198264078153 0.45994976645917734     H
