data_I
_chemical_name_common  '/functionalized/UiO-66/UiO-66_2_functionalization/COOH//cif/functionalized_UiO-66_COOH_2'
_cell_length_a 14.67267
_cell_length_b 14.67267
_cell_length_c 14.67267
_cell_angle_alpha 60.00000
_cell_angle_beta  60.00000
_cell_angle_gamma 60.00000
_space_group_name_H-M_alt      'P 1'


loop_
_space_group_symop_operation_xyz
  'x, y, z'

loop_
_atom_site_label
_atom_site_fract_x
_atom_site_fract_y
_atom_site_fract_z
_atom_site_type_symbol
C     -0.45960615840697305 -0.07574972047624004 0.08905211726654794     C
C     -0.45960615840697305 -0.07574972047624003 0.4463037616166652     C
C     -0.45960615840697316 0.44630376161666524 -0.07574972047624003     C
C     -0.45960615840697305 0.08905211726654792 -0.07574972047624005     C
C     -0.45960615840697305 0.08905211726654792 0.4463037616166652     C
C     -0.459606158406973 0.4463037616166652 0.08905211726654794     C
H     -0.4203917654417524 0.15237925664159976 -0.13921645142072733     H
H     -0.4203917654417524 0.15237925664159974 0.40722896022087995     H
H     -0.42039176544175233 0.40722896022087995 0.15237925664159976     H
C     -0.4118676468761061 0.39944212669512663 0.006212760090489745     C
C     -0.41186764687610605 0.006212760090489745 0.0062127600904897315     C
C     -0.4118676468761061 0.006212760090489729 0.39944212669512674     C
C     -0.3088165682698261 0.004048148718604874 0.004048148718604868     C
C     -0.3088165682698262 0.004048148718604874 0.3007202708326165     C
C     -0.30881656826982623 0.3007202708326165 0.004048148718604872     C
O     -0.26724722207022783 -0.07472637229222977 0.07989233042936958     O
O     -0.26724722207022783 -0.07472637229222975 0.26208126393308806     O
O     -0.2672472220702279 0.0798923304293696 -0.07472637229222978     O
O     -0.2672472220702279 0.0798923304293696 0.26208126393308806     O
O     -0.26724722207022783 0.26208126393308806 -0.07472637229222975     O
O     -0.2672472220702279 0.26208126393308806 0.07989233042936959     O
O     -0.15125375508900615 0.05041791836300206 0.05041791836300206     O
H     -0.13921645142072733 -0.42039176544175244 0.15237925664159976     H
H     -0.13921645142072733 -0.42039176544175244 0.40722896022088     H
H     -0.13921645142072728 0.15237925664159976 -0.42039176544175244     H
Zr    -0.1197958266614705 -0.11979582666147053 0.11979582666147053    Zr
Zr    -0.11979582666147051 0.11979582666147053 -0.11979582666147053    Zr
Zr    -0.11979582666147051 0.11979582666147051 0.11979582666147053    Zr
H     -0.09439580954463425 -0.09439580954463425 -0.09439580954463428     H
H     -0.09439580954463427 -0.09439580954463428 0.2831874286339028     H
H     -0.09439580954463425 0.2831874286339028 -0.09439580954463428     H
C     -0.07574972047624004 0.44630376161666524 -0.4596061584069731     C
C     -0.07574972047624004 0.4463037616166652 0.08905211726654792     C
C     -0.07574972047624005 -0.4596061584069731 0.4463037616166652     C
C     -0.07574972047624003 0.08905211726654792 0.4463037616166652     C
C     -0.07574972047623998 0.08905211726654795 -0.45960615840697316     C
C     -0.07574972047624001 -0.4596061584069731 0.08905211726654794     C
O     -0.07472637229222977 0.0798923304293696 0.26208126393308806     O
O     -0.07472637229222974 0.26208126393308806 -0.2672472220702279     O
O     -0.07472637229222975 0.26208126393308806 0.07989233042936959     O
O     -0.07472637229222977 -0.26724722207022783 0.07989233042936958     O
O     -0.07472637229222977 -0.2672472220702279 0.26208126393308806     O
O     -0.07472637229222974 0.07989233042936959 -0.2672472220702279     O
O     -0.06730802701012735 -0.06730802701012736 -0.06730802701012736     O
O     -0.06730802701012735 -0.06730802701012738 0.2019240810303821     O
O     -0.06730802701012735 0.20192408103038206 -0.06730802701012736     O
C     0.004048148718604846 0.00404814871860486 0.3007202708326165     C
C     0.004048148718604846 0.3007202708326165 -0.30881656826982623     C
C     0.004048148718604842 0.3007202708326165 0.004048148718604875     C
C     0.004048148718604874 0.004048148718604874 -0.30881656826982623     C
C     0.004048148718604872 -0.30881656826982623 0.004048148718604868     C
C     0.004048148718604888 -0.30881656826982623 0.3007202708326165     C
C     0.006212760090489729 0.006212760090489729 0.39944212669512674     C
C     0.00621276009048977 0.39944212669512674 -0.4118676468761062     C
C     0.0062127600904897645 0.39944212669512663 0.006212760090489745     C
C     0.006212760090489726 -0.41186764687610616 0.0062127600904897315     C
C     0.006212760090489701 -0.41186764687610616 0.39944212669512674     C
C     0.006212760090489742 0.006212760090489742 -0.4118676468761062     C
O     0.050417918363002044 0.05041791836300206 0.05041791836300206     O
O     0.05041791836300205 -0.15125375508900618 0.05041791836300205     O
O     0.05041791836300206 0.05041791836300206 -0.15125375508900618     O
O     0.07989233042936958 -0.07472637229222975 0.26208126393308806     O
O     0.07989233042936959 0.26208126393308806 -0.2672472220702279     O
O     0.07989233042936958 0.26208126393308806 -0.07472637229222975     O
O     0.07989233042936957 -0.26724722207022783 -0.07472637229222978     O
O     0.07989233042936958 -0.2672472220702279 0.26208126393308806     O
O     0.07989233042936958 -0.07472637229222974 -0.2672472220702279     O
C     0.08905211726654794 -0.4596061584069731 -0.07574972047624005     C
C     0.08905211726654792 -0.4596061584069731 0.4463037616166652     C
C     0.08905211726654791 -0.07574972047624004 0.44630376161666524     C
C     0.08905211726654792 -0.07574972047624004 -0.4596061584069731     C
C     0.08905211726654796 0.44630376161666524 -0.45960615840697316     C
C     0.08905211726654799 0.4463037616166652 -0.07574972047624001     C
Zr    0.11979582666147051 -0.11979582666147051 -0.11979582666147053    Zr
Zr    0.11979582666147051 -0.11979582666147053 0.11979582666147053    Zr
Zr    0.1197958266614705 0.11979582666147053 -0.11979582666147053    Zr
H     0.1523792566415997 -0.13921645142072733 0.40722896022088     H
H     0.1523792566415997 0.40722896022088007 -0.42039176544175244     H
H     0.1523792566415997 0.40722896022088 -0.13921645142072733     H
O     0.20192408103038206 -0.06730802701012736 -0.06730802701012736     O
O     0.26208126393308806 -0.26724722207022783 -0.07472637229222978     O
O     0.262081263933088 -0.26724722207022783 0.07989233042936958     O
O     0.26208126393308806 -0.07472637229222974 -0.2672472220702279     O
O     0.26208126393308806 -0.07472637229222977 0.07989233042936959     O
O     0.262081263933088 0.07989233042936959 -0.2672472220702279     O
O     0.262081263933088 0.07989233042936959 -0.07472637229222975     O
H     0.2831874286339027 -0.09439580954463425 -0.09439580954463428     H
C     0.30072027083261643 -0.30881656826982623 0.004048148718604865     C
C     0.3007202708326165 0.004048148718604888 -0.30881656826982623     C
C     0.3007202708326165 0.004048148718604867 0.004048148718604875     C
C     0.3994421266951267 -0.4118676468761062 0.0062127600904897315     C
C     0.3994421266951267 0.006212760090489742 -0.4118676468761062     C
C     0.3994421266951267 0.0062127600904897315 0.006212760090489745     C
H     0.4072289602208799 -0.4203917654417524 -0.13921645142072733     H
H     0.40722896022088 -0.13921645142072733 -0.42039176544175244     H
H     0.40722896022087995 -0.13921645142072733 0.15237925664159976     H
C     0.4463037616166652 -0.4596061584069731 -0.07574972047624004     C
C     0.4463037616166652 -0.07574972047624004 -0.4596061584069731     C
C     0.44630376161666513 -0.07574972047624004 0.08905211726654792     C
C     0.4463037616166652 0.08905211726654796 -0.45960615840697316     C
C     0.44630376161666513 0.08905211726654795 -0.07574972047624004     C
C     0.44630376161666524 -0.4596061584069731 0.08905211726654792     C
C     -0.40596996212194714 -0.16255749132523853 0.17566895921797007     C
O     -0.3223356790693112 -0.15971451542073295 0.17192171531344633     O
O     -0.44620787508370735 -0.24531943403253992 0.2592214122339782     O
H     -0.5114881748371408 -0.2551789356720585 0.26981536508928966     H
C     -0.6071415057707844 0.17566895921797004 -0.1625574913252385     C
O     -0.5668473035802467 0.2484799259438867 -0.23553602807951354     O
O     -0.6993410129675888 0.17730018603790085 -0.16418295595173032     O
H     -0.7376286912250096 0.12390862519364612 -0.11066286792033232     H
C     -0.4059699621219471 -0.1625574913252385 0.3928584942292156     C
O     -0.4461036598045111 -0.23552897811645934 0.4331456308993685     O
O     -0.31376686954837363 -0.16419228293983923 0.300668334602619     O
H     -0.2755968938908258 -0.1106829956614186 0.26239148093246856     H
C     -0.6071415057707843 0.17566895921796996 0.594030037878053     C
O     -0.6898643793748234 0.17191468149307834 0.677671310059456     O
O     -0.5677035511397219 0.2592307178655716 0.5537828784109704     O
H     -0.5031686435136019 0.269835446742785 0.4884918711044959     H
C     0.594030037878053 -0.6071415057707843 -0.16255749132523853     C
O     0.5539034057158738 -0.5668473035802467 -0.2355360280795137     O
O     0.6862237828814184 -0.6993410129675889 -0.16418295595173024     O
H     0.7243829339516957 -0.7376286912250097 -0.11066286792033214     H
C     0.39285849422921554 -0.40596996212194714 0.17566895921797004     C
O     0.31012847917659775 -0.3223356790693113 0.17192171531344633     O
O     0.4323058968822691 -0.44620787508370735 0.25922141223397815     O
H     0.4968517454199097 -0.5114881748371406 0.2698153650892896     H
C     -0.16255749132523845 0.39285849422921565 -0.40596996212194714     C
O     -0.15972161217771075 0.3101356206251765 -0.3223286899405441     O
O     -0.24531004513681998 0.4322964488602779 -0.4462171215890295     O
H     -0.25515867433367906 0.496831356486398 -0.5115081288955039     H
C     0.17566895921796996 0.594030037878053 -0.6071415057707845     C
O     0.24848700702160206 0.553896340195489 -0.5668543691006317     O
O     0.17729081788559378 0.6862331304516264 -0.6993316653973811     O
H     0.12388840861977572 0.7244031061091741 -0.7376085190675314     H
C     -0.1625574913252385 0.3928584942292156 0.17566895921797     C
O     -0.23553602807951352 0.4331526964197531 0.24847992594388676     O
O     -0.16418295595173024 0.30065898703241106 0.17730018603790074     O
H     -0.11066286792033227 0.2623713087749904 0.12390862519364594     H
C     0.17566895921796996 0.594030037878053 -0.16255749132523845     C
O     0.17192171531344613 0.6776643209306888 -0.15971451542073276     O
O     0.2592214122339782 0.5537921249162927 -0.24531943403253992     O
H     0.2698153650892897 0.4885118251628593 -0.2551789356720586     H
C     -0.16255749132523845 0.17566895921796993 0.39285849422921554     C
O     -0.23552897811645923 0.2484870070216021 0.43314563089936825     O
O     -0.1641922829398391 0.17729081788559375 0.300668334602619     O
H     -0.11068299566141847 0.12388840861977563 0.26239148093246867     H
C     0.17566895921796996 -0.16255749132523845 0.594030037878053     C
O     0.2484870070216022 -0.23552897811645923 0.5538963401954888     O
O     0.17729081788559384 -0.16419228293983917 0.6862331304516263     O
H     0.12388840861977576 -0.11068299566141857 0.7244031061091741     H
