data_I
_chemical_name_common  '/UiO-66_functionalized/UiO-66//cif/functionalized_UiO-66_NH2_1'
_cell_length_a 14.67267
_cell_length_b 14.67267
_cell_length_c 14.67267
_cell_angle_alpha 60.00000
_cell_angle_beta  60.00000
_cell_angle_gamma 60.00000
_space_group_name_H-M_alt      'P 1'


loop_
_space_group_symop_operation_xyz
  'x, y, z'

loop_
_atom_site_label
_atom_site_fract_x
_atom_site_fract_y
_atom_site_fract_z
_atom_site_type_symbol
C     -0.45960615840697305 -0.07574972047624004 0.08905211726654794     C
C     -0.45960615840697305 -0.07574972047624003 0.4463037616166652     C
C     -0.45960615840697316 0.44630376161666524 -0.07574972047624003     C
C     -0.45960615840697305 0.08905211726654792 -0.07574972047624005     C
C     -0.45960615840697305 0.08905211726654792 0.4463037616166652     C
C     -0.459606158406973 0.4463037616166652 0.08905211726654794     C
H     -0.4203917654417524 0.15237925664159976 -0.13921645142072733     H
H     -0.4203917654417524 0.15237925664159974 0.40722896022087995     H
H     -0.42039176544175233 0.40722896022087995 0.15237925664159976     H
C     -0.4118676468761061 0.39944212669512663 0.006212760090489745     C
C     -0.41186764687610605 0.006212760090489745 0.0062127600904897315     C
C     -0.4118676468761061 0.006212760090489729 0.39944212669512674     C
C     -0.3088165682698261 0.004048148718604874 0.004048148718604868     C
C     -0.3088165682698262 0.004048148718604874 0.3007202708326165     C
C     -0.30881656826982623 0.3007202708326165 0.004048148718604872     C
O     -0.26724722207022783 -0.07472637229222977 0.07989233042936958     O
O     -0.26724722207022783 -0.07472637229222975 0.26208126393308806     O
O     -0.2672472220702279 0.0798923304293696 -0.07472637229222978     O
O     -0.2672472220702279 0.0798923304293696 0.26208126393308806     O
O     -0.26724722207022783 0.26208126393308806 -0.07472637229222975     O
O     -0.2672472220702279 0.26208126393308806 0.07989233042936959     O
O     -0.15125375508900615 0.05041791836300206 0.05041791836300206     O
H     -0.13921645142072733 -0.42039176544175244 0.15237925664159976     H
H     -0.13921645142072733 -0.42039176544175244 0.40722896022088     H
H     -0.13921645142072728 0.15237925664159976 -0.42039176544175244     H
Zr    -0.1197958266614705 -0.11979582666147053 0.11979582666147053    Zr
Zr    -0.11979582666147051 0.11979582666147053 -0.11979582666147053    Zr
Zr    -0.11979582666147051 0.11979582666147051 0.11979582666147053    Zr
H     -0.09439580954463425 -0.09439580954463425 -0.09439580954463428     H
H     -0.09439580954463427 -0.09439580954463428 0.2831874286339028     H
H     -0.09439580954463425 0.2831874286339028 -0.09439580954463428     H
C     -0.07574972047624004 0.44630376161666524 -0.4596061584069731     C
C     -0.07574972047624004 0.4463037616166652 0.08905211726654792     C
C     -0.07574972047624005 -0.4596061584069731 0.4463037616166652     C
C     -0.07574972047624003 0.08905211726654792 0.4463037616166652     C
C     -0.07574972047623998 0.08905211726654795 -0.45960615840697316     C
C     -0.07574972047624001 -0.4596061584069731 0.08905211726654794     C
O     -0.07472637229222977 0.0798923304293696 0.26208126393308806     O
O     -0.07472637229222974 0.26208126393308806 -0.2672472220702279     O
O     -0.07472637229222975 0.26208126393308806 0.07989233042936959     O
O     -0.07472637229222977 -0.26724722207022783 0.07989233042936958     O
O     -0.07472637229222977 -0.2672472220702279 0.26208126393308806     O
O     -0.07472637229222974 0.07989233042936959 -0.2672472220702279     O
O     -0.06730802701012735 -0.06730802701012736 -0.06730802701012736     O
O     -0.06730802701012735 -0.06730802701012738 0.2019240810303821     O
O     -0.06730802701012735 0.20192408103038206 -0.06730802701012736     O
C     0.004048148718604846 0.00404814871860486 0.3007202708326165     C
C     0.004048148718604846 0.3007202708326165 -0.30881656826982623     C
C     0.004048148718604842 0.3007202708326165 0.004048148718604875     C
C     0.004048148718604874 0.004048148718604874 -0.30881656826982623     C
C     0.004048148718604872 -0.30881656826982623 0.004048148718604868     C
C     0.004048148718604888 -0.30881656826982623 0.3007202708326165     C
C     0.006212760090489729 0.006212760090489729 0.39944212669512674     C
C     0.00621276009048977 0.39944212669512674 -0.4118676468761062     C
C     0.0062127600904897645 0.39944212669512663 0.006212760090489745     C
C     0.006212760090489726 -0.41186764687610616 0.0062127600904897315     C
C     0.006212760090489701 -0.41186764687610616 0.39944212669512674     C
C     0.006212760090489742 0.006212760090489742 -0.4118676468761062     C
O     0.050417918363002044 0.05041791836300206 0.05041791836300206     O
O     0.05041791836300205 -0.15125375508900618 0.05041791836300205     O
O     0.05041791836300206 0.05041791836300206 -0.15125375508900618     O
O     0.07989233042936958 -0.07472637229222975 0.26208126393308806     O
O     0.07989233042936959 0.26208126393308806 -0.2672472220702279     O
O     0.07989233042936958 0.26208126393308806 -0.07472637229222975     O
O     0.07989233042936957 -0.26724722207022783 -0.07472637229222978     O
O     0.07989233042936958 -0.2672472220702279 0.26208126393308806     O
O     0.07989233042936958 -0.07472637229222974 -0.2672472220702279     O
C     0.08905211726654794 -0.4596061584069731 -0.07574972047624005     C
C     0.08905211726654792 -0.4596061584069731 0.4463037616166652     C
C     0.08905211726654791 -0.07574972047624004 0.44630376161666524     C
C     0.08905211726654792 -0.07574972047624004 -0.4596061584069731     C
C     0.08905211726654796 0.44630376161666524 -0.45960615840697316     C
C     0.08905211726654799 0.4463037616166652 -0.07574972047624001     C
Zr    0.11979582666147051 -0.11979582666147051 -0.11979582666147053    Zr
Zr    0.11979582666147051 -0.11979582666147053 0.11979582666147053    Zr
Zr    0.1197958266614705 0.11979582666147053 -0.11979582666147053    Zr
H     0.15237925664159974 -0.4203917654417524 -0.13921645142072733     H
H     0.15237925664159974 -0.4203917654417524 0.40722896022087995     H
H     0.15237925664159976 -0.13921645142072733 -0.42039176544175244     H
H     0.1523792566415997 -0.13921645142072733 0.40722896022088     H
H     0.1523792566415997 0.40722896022088007 -0.42039176544175244     H
H     0.1523792566415997 0.40722896022088 -0.13921645142072733     H
O     0.20192408103038206 -0.06730802701012736 -0.06730802701012736     O
O     0.26208126393308806 -0.26724722207022783 -0.07472637229222978     O
O     0.262081263933088 -0.26724722207022783 0.07989233042936958     O
O     0.26208126393308806 -0.07472637229222974 -0.2672472220702279     O
O     0.26208126393308806 -0.07472637229222977 0.07989233042936959     O
O     0.262081263933088 0.07989233042936959 -0.2672472220702279     O
O     0.262081263933088 0.07989233042936959 -0.07472637229222975     O
H     0.2831874286339027 -0.09439580954463425 -0.09439580954463428     H
C     0.30072027083261643 -0.30881656826982623 0.004048148718604865     C
C     0.3007202708326165 0.004048148718604888 -0.30881656826982623     C
C     0.3007202708326165 0.004048148718604867 0.004048148718604875     C
C     0.3994421266951267 -0.4118676468761062 0.0062127600904897315     C
C     0.3994421266951267 0.006212760090489742 -0.4118676468761062     C
C     0.3994421266951267 0.0062127600904897315 0.006212760090489745     C
H     0.4072289602208799 -0.4203917654417524 -0.13921645142072733     H
H     0.40722896022088 -0.13921645142072733 -0.42039176544175244     H
H     0.40722896022087995 -0.13921645142072733 0.15237925664159976     H
H     0.40722896022088 -0.42039176544175244 0.15237925664159976     H
H     0.40722896022088 0.15237925664159976 -0.42039176544175244     H
H     0.40722896022088 0.15237925664159976 -0.13921645142072733     H
C     0.4463037616166652 -0.4596061584069731 -0.07574972047624004     C
C     0.4463037616166652 -0.07574972047624004 -0.4596061584069731     C
C     0.44630376161666513 -0.07574972047624004 0.08905211726654792     C
C     0.4463037616166652 0.08905211726654796 -0.45960615840697316     C
C     0.44630376161666513 0.08905211726654795 -0.07574972047624004     C
C     0.44630376161666524 -0.4596061584069731 0.08905211726654792     C
N     -0.4085872634804102 -0.158321506816552 0.17144229152325635     N
H     -0.4407054512977513 -0.21709234200114172 0.2308188355270895     H
H     -0.34115534466257447 -0.15670509645152458 0.16909395339608088     H
N     -0.4085872634804102 -0.15832150681655202 0.39546647877370594     N
H     -0.341520890782029 -0.15633653004926568 0.3283960928253062     H
H     -0.44033910163777285 -0.21746041619214623 0.4273485539986092     H
N     0.5914127365195899 -0.604533521226294 -0.15832150681655205     N
H     0.6584787562338906 -0.6716042601587741 -0.15633617784240905     H
H     0.5596607338791203 -0.5726516104844979 -0.21746025207120906     H
N     -0.15832150681655197 0.39546647877370583 0.17144229152325627     N
H     -0.15633617784240905 0.3283957398412259 0.16946168176729245     H
H     -0.2174602520712089 0.4273483895155019 0.23045112867658682     H
N     -0.15832150681655194 0.39546647877370594 -0.40858726348041025     N
H     -0.21709198745652236 0.4269786009944508 -0.440705800465407     H
H     -0.15670493124123927 0.32876632146732654 -0.3411555073673085     H
N     -0.15832150681655197 0.1714422915232562 0.3954664787737059     N
H     -0.15633653004926557 0.1694613280059884 0.3283960928253062     H
H     -0.21746041619214615 0.23045096383130992 0.42734855399860905     H
