data_I
_chemical_name_common  '/MIL-53_rot_45'
_cell_length_a 13.21700
_cell_length_b 22.04320
_cell_length_c 22.04320
_cell_angle_alpha 71.07970
_cell_angle_beta  72.55470
_cell_angle_gamma 72.55450
_space_group_name_H-M_alt      'P 1'


loop_
_space_group_symop_operation_xyz
  'x, y, z'

loop_
_atom_site_label
_atom_site_fract_x
_atom_site_fract_y
_atom_site_fract_z
_atom_site_type_symbol
Al     0.25322  0.25145  0.00027    Al
Al     0.00378  0.25094    3e-05    Al
C     0.06260306207554191 0.048509889585744474 -0.03897554866562951     C
C     0.1919702398289886 0.28892318558060937 0.20455859522145448     C
C     0.15717484652871216 0.29321572129993767 0.27019050148870954     C
C     0.07088695393810876 0.45488702475346154 0.5379163550835222     C
C     0.4419458635648678 0.4547497797963415 0.538114937446039     C
C     0.3149071454711749 0.20957759291321162 0.29649434053477974     C
C     0.3493540108003141 0.2051998502251302 0.2308637165931683     C
C     0.40627851646276986 1.01984042362149 1.0444042041275172     C
C     0.46594000000000024 1.0678899999999998  1.00578     C
C     0.43017000000000016  1.13877 1.0076800000000001     C
C      0.28901 0.24508999999999995 0.18362000000000006     C
C     0.32477000000000017 0.24489999999999992  0.11226     C
C     0.21784000000000017  0.25334  0.31743     C
C     0.18174000000000004 0.25494999999999995 0.38843000000000005     C
C     0.03871999999999996 0.43535000000000007  0.49311     C
C     0.07593999999999998  0.36404  0.49194     C
O     0.3298000000000001 1.1682499999999998  1.00764     O
O       0.4252 0.24529000000000004  0.08281     O
O     0.2527000000000001 0.25542999999999993 0.4176500000000001     O
O     0.004840000000000089 0.3343399999999999  0.49239     O
O     0.1764200000000002  0.33491  0.49289     O
O     0.08135000000000003  0.25454 0.41757000000000005     O
O     0.25292999999999993 0.24589000000000005 0.08303000000000003     O
O     0.002320000000000003 0.16794999999999996 0.006530000000000001     O
O      0.37785  0.28006  0.47279     O
O      0.12679  0.22507  0.02958     O
H     0.11137451143327821 0.08359035397592393 -0.06929014171189533     H
H     0.1433821396648905 0.32066380254463933 0.16991703968597888     H
H     0.08294122908358278 0.328328912634927 0.28356633587287994     H
H     0.12275698026906937 0.4195392605559558 0.5690132332259588     H
H     0.3943895042781644 0.4194101692850838 0.5694340956639155     H
H     0.3649669186312596 0.17895434004402072 0.3307376762090002     H
H     0.4243761624499228 0.17114911331945476 0.21678855358523932     H
H     0.3318778702565082 1.0325509769300902 1.0796155429452305     H
H       0.3766  0.31503  0.44061     H
H      0.12403  0.19444  0.06579     H
Al     0.75322  0.25145  0.00027    Al
Al     0.50378  0.25094    3e-05    Al
C     0.5626030620755422 1.0485098895857445 0.9610244513343704     C
C     0.6919702398289885 0.28892318558060953 0.20455859522145442     C
C     0.6571748465287118 0.2932157212999379 0.2701905014887095     C
C     0.5979607388641859 0.4835868998742358 0.45463874761911705     C
C     -0.030625453014121996 0.4835526045199379 0.4545389848215883     C
C     0.8149071454711747 0.20957759291321162 0.29649434053477974     C
C     0.849354010800314 0.2051998502251303 0.23086371659316823     C
C     -0.09372148353723025 0.01984042362148984 0.04440420412751704     C
C     -0.03405999999999998  0.06789 0.005780000000000001     C
C     -0.06982999999999995 0.13876999999999998  0.00768     C
C     0.7890100000000002 0.24508999999999995 0.18362000000000006     C
C     0.8247700000000001 0.24489999999999992  0.11226     C
C      0.71784  0.25334  0.31743     C
C      0.68174 0.25494999999999995 0.38843000000000005     C
C     0.5387199999999999 0.43535000000000007  0.49311     C
C      0.57594  0.36404  0.49194     C
O     -0.17020000000000018  0.16825 0.007640000000000001     O
O       0.9252 0.24529000000000004  0.08281     O
O     0.7527000000000004 0.25542999999999993 0.4176500000000001     O
O     0.5048400000000003 0.3343399999999999  0.49239     O
O     0.6764199999999999  0.33491  0.49289     O
O     0.5813499999999999  0.25454 0.41757000000000005     O
O     0.7529299999999998 0.24589000000000005 0.08303000000000003     O
O     0.5023199999999999  1.16795  1.00653     O
O      0.87785  0.28006  0.47279     O
O      0.62679  0.22507  0.02958     O
H     0.6113745114332787 1.083590353975924 0.9307098582881046     H
H     0.6433821396648903 0.3206638025446396 0.16991703968597888     H
H     0.5829412290835826 0.32832891263492703 0.28356633587288     H
H     0.6731284103374101 0.4708412578722579 0.4201546125636099     H
H     -0.05890003027842167 0.4708613811679444 0.420136887965316     H
H     0.8649669186312597 0.1789543400440206 0.3307376762090002     H
H     0.9243761624499226 0.17114911331945504 0.21678855358523924     H
H     -0.1681221297434925 0.03255097693009011 0.07961554294523052     H
H       0.8766  0.31503  0.44061     H
H      0.62403  0.19444  0.06579     H
Al     0.25322  0.75145  0.00027    Al
Al     0.00378  0.75094    3e-05    Al
C     1.0348545246442291 0.5197841832110295 0.04437605194987182     C
C     0.1919702398289885 0.7889231855806094 0.20455859522145456     C
C     0.15717484652871216 0.7932157212999377 0.2701905014887097     C
C     1.0979607388641863 -0.016413100125764205 0.45463874761911693     C
C     0.4693745469858781 -0.0164473954800622 0.45453898482158833     C
C     0.31490714547117504 0.7095775929132115 0.2964943405347797     C
C     0.349354010800314 0.70519985022513 0.23086371659316815     C
C     0.4334967486137599 0.548641260063979 0.9608337127618718     C
C     0.46594000000000024 0.5678899999999999  1.00578     C
C     0.43017000000000016 0.6387699999999998 1.0076800000000001     C
C     0.2890099999999999  0.74509 0.18362000000000006     C
C      0.32477   0.7449  0.11226     C
C     0.21784000000000023 0.7533399999999998  0.31743     C
C     0.18174000000000015  0.75495 0.38843000000000005     C
C      1.03872 -0.06464999999999997  0.49311     C
C     1.0759400000000001 -0.13595999999999994  0.49194     C
O     0.3298000000000002 0.6682499999999999  1.00764     O
O     0.42520000000000013 0.7452899999999998  0.08281     O
O     0.25270000000000004  0.75543 0.4176500000000001     O
O      1.00484 -0.16566  0.49239     O
O     1.1764200000000002 -0.16509000000000004  0.49289     O
O     0.08135000000000028 0.7545399999999999 0.41757000000000005     O
O     0.2529300000000001 0.7458899999999999 0.08303000000000003     O
O     1.0023199999999999  0.66795 0.006530000000000001     O
O      0.37785  0.78006  0.47279     O
O      0.12679  0.72507  0.02958     O
H     1.0612083306168105 0.5322036376478795 0.07981472689758991     H
H     0.1433821396648906 0.8206638025446394 0.16991703968597904     H
H     0.08294122908358263 0.8283289126349267 0.2835663358728801     H
H     1.1731284103374098 -0.02915874212774197 0.42015461256361003     H
H     0.44109996972157817 -0.02913861883205539 0.420136887965316     H
H     0.36496691863126 0.6789543400440206 0.330737676209     H
H     0.4243761624499228 0.6711491133194549 0.2167885535852391     H
H     0.3801846448448618 0.5839480284223241 0.9304779242215967     H
H       0.3766  0.81503  0.44061     H
H      0.12403  0.69444  0.06579     H
Al     0.75322  0.75145  0.00027    Al
Al     0.50378  0.75094    3e-05    Al
C     0.5348545246442283 0.5197841832110296 1.0443760519498722     C
C     0.7210147144635032 0.7052311151792339 0.23085358222520655     C
C     0.6856424870147833 0.7094352489338843 0.2965130150906613     C
C     0.5708869539381088 -0.04511297524653845 0.5379163550835222     C
C     0.9419458635648679 -0.045250220203658445 0.5381149374460392     C
C     0.7857012192366775 0.7932421343760333 0.2702079329162597     C
C     0.8213024370790648 0.7887828989267648 0.2046033729828909     C
C     0.9334967486137601 0.5486412600639794 -0.03916628723812853     C
C     0.9659400000000001  0.56789 0.005780000000000001     C
C     0.9301700000000002  0.63877  0.00768     C
C      0.78901  0.74509 0.18362000000000006     C
C     0.8247700000000003   0.7449  0.11226     C
C     0.7178399999999999 0.7533399999999998  0.31743     C
C     0.6817400000000001  0.75495 0.38843000000000005     C
C      0.53872 -0.06464999999999997  0.49311     C
C      0.57594 -0.13595999999999994  0.49194     C
O       0.8298  0.66825 0.007640000000000001     O
O     0.9251999999999998 0.7452899999999998  0.08281     O
O     0.7527000000000006  0.75543 0.4176500000000001     O
O     0.5048400000000003 -0.16566  0.49239     O
O     0.6764200000000004 -0.16509000000000004  0.49289     O
O     0.5813500000000004 0.7545399999999999 0.41757000000000005     O
O     0.7529300000000001 0.7458899999999999 0.08303000000000003     O
O     0.5023199999999999  0.66795  1.00653     O
O      0.87785  0.78006  0.47279     O
O      0.62679  0.72507  0.02958     O
H     0.5612083306168102 0.5322036376478795 1.0798147268975902     H
H     0.6938534861150292 0.6712312642669401 0.2168662809824161     H
H     0.6322298796746214 0.6784685303110687 0.33064945653801003     H
H     0.6227569802690694 -0.08046073944404403 0.5690132332259588     H
H     0.8943895042781643 -0.08058983071491606 0.5694340956639157     H
H     0.8107548791402678 0.8284280919133951 0.2837739638408256     H
H     0.8730201166048979 0.8203571127902023 0.16990946628854509     H
H     0.8801846448448618 0.5839480284223244 -0.06952207577840352     H
H       0.8766  0.81503  0.44061     H
H      0.62403  0.69444  0.06579     H
Al     0.25322  0.25145  0.50027    Al
Al     0.00378  0.25094  0.50003    Al
C     1.0626030620755422 0.048509889585744564 0.4610244513343704     C
C     0.19197023982898836 0.2889231855806094 0.7045585952214546     C
C     0.15717484652871208 0.2932157212999379 0.7701905014887095     C
C     1.0708869539381092 0.4548870247534616 0.03791635508352205     C
C     0.46937454698587855 0.4835526045199374 0.9545389848215885     C
C     0.3149071454711748 0.2095775929132116 0.7964943405347799     C
C     0.349354010800314 0.20519985022513018 0.7308637165931685     C
C     0.43349674861375986 0.04864126006397936 0.4608337127618716     C
C     0.4659400000000001 0.06789000000000002  0.50578     C
C     0.43016999999999994  0.13877  0.50768     C
C     0.2890100000000002 0.24508999999999997  0.68362     C
C     0.32477000000000017 0.24489999999999995  0.61226     C
C     0.21784000000000003  0.25334 0.8174300000000001     C
C     0.18174000000000004  0.25495  0.88843     C
C     1.0387199999999999 0.43534999999999996 -0.006889999999999841     C
C      1.07594  0.36404 -0.008059999999999845     C
O     0.3297999999999999 0.16825000000000004  0.50764     O
O     0.42520000000000024 0.24529000000000004  0.58281     O
O     0.25270000000000026  0.25543  0.91765     O
O     1.0048400000000002 0.3343399999999999 -0.0076099999999998955     O
O      1.17642  0.33491 -0.007109999999999839     O
O     0.08135000000000006  0.25454  0.91757     O
O     0.25293000000000004  0.24589  0.58303     O
O      1.00232  0.16795  0.50653     O
O      0.37785  0.28006  0.97279     O
O      0.12679  0.22507  0.52958     O
H     1.1113745114332783 0.08359035397592406 0.4307098582881046     H
H     0.14338213966489038 0.3206638025446395 0.6699170396859789     H
H     0.0829412290835826 0.32832891263492703 0.78356633587288     H
H     1.1227569802690696 0.419539260555956 0.06901323322595887     H
H     0.44109996972157867 0.47086138116794407 0.9201368879653162     H
H     0.3649669186312595 0.17895434004402064 0.8307376762090002     H
H     0.4243761624499228 0.17114911331945495 0.7167885535852392     H
H     0.3801846448448618 0.08394802842232453 0.4304779242215967     H
H       0.3766  0.31503  0.94061     H
H      0.12403  0.19444  0.56579     H
Al     0.75322  0.25145  0.50027    Al
Al     0.50378  0.25094  0.50003    Al
C     0.5348545246442287 0.019784183211029593 0.5443760519498717     C
C     0.6919702398289882 0.2889231855806095 0.7045585952214546     C
C     0.6571748465287118 0.29321572129993784 0.7701905014887097     C
C     0.5708869539381088 0.45488702475346166 1.0379163550835222     C
C     0.9693745469858782 0.48355260451993765 -0.045461015178411675     C
C     0.8149071454711747 0.20957759291321165 0.7964943405347799     C
C     0.8493540108003139 0.20519985022513018 0.7308637165931685     C
C     0.9062785164627696 0.019840423621489724 0.5444042041275172     C
C     0.9659400000000001 0.06789000000000002  0.50578     C
C     0.9301700000000002  0.13877  0.50768     C
C     0.7890100000000003 0.24508999999999997  0.68362     C
C      0.82477 0.24489999999999995  0.61226     C
C     0.7178400000000001  0.25334 0.8174300000000001     C
C      0.68174  0.25495  0.88843     C
C     0.5387199999999999  0.43535 0.9931100000000003     C
C     0.5759400000000002 0.3640399999999999 0.9919400000000003     C
O     0.8298000000000003 0.16825000000000004  0.50764     O
O       0.9252 0.24529000000000004  0.58281     O
O     0.7526999999999999  0.25543  0.91765     O
O     0.5048400000000002 0.33433999999999997 0.9923900000000001     O
O      0.67642  0.33491 0.9928900000000002     O
O     0.5813499999999999  0.25454  0.91757     O
O      0.75293  0.24589  0.58303     O
O     0.5023199999999999  0.16795  0.50653     O
O      0.87785  0.28006  0.97279     O
O      0.62679  0.22507  0.52958     O
H     0.5612083306168106 0.032203637647879396 0.57981472689759     H
H     0.6433821396648904 0.32066380254463944 0.669917039685979     H
H     0.5829412290835828 0.32832891263492703 0.78356633587288     H
H     0.6227569802690692 0.41953926055595614 1.069013233225959     H
H     0.9410999697215786 0.47086138116794424 -0.07986311203468392     H
H     0.8649669186312595 0.17895434004402055 0.8307376762090005     H
H     0.9243761624499226 0.17114911331945507 0.7167885535852392     H
H     0.8318778702565083 0.03255097693009003 0.5796155429452307     H
H       0.8766  0.31503  0.94061     H
H      0.62403  0.19444  0.56579     H
Al     0.25322  0.75145  0.50027    Al
Al     0.00378  0.75094  0.50003    Al
C     0.03485452464422878 0.5197841832110295 0.5443760519498718     C
C     0.1919702398289888 0.7889231855806095 0.7045585952214546     C
C     0.15717484652871222 0.7932157212999379 0.7701905014887096     C
C     0.0979607388641858 -0.01641310012576437 -0.04536125238088296     C
C     0.44194586356486737 0.9547497797963418 1.038114937446039     C
C     0.3149071454711749 0.7095775929132114 0.7964943405347801     C
C     0.3493540108003143 0.7051998502251301 0.7308637165931684     C
C     0.4062785164627697 0.5198404236214895 0.5444042041275172     C
C     0.4659400000000003 0.5678899999999999  0.50578     C
C     0.43017000000000005 0.6387700000000001  0.50768     C
C     0.2890099999999999 0.7450899999999999  0.68362     C
C     0.3247700000000003   0.7449  0.61226     C
C     0.21783999999999992  0.75334 0.8174300000000001     C
C     0.18174000000000026  0.75495  0.88843     C
C     0.038719999999999956 -0.06464999999999997 -0.006889999999999841     C
C     0.07594000000000023 -0.1359600000000003 -0.008059999999999845     C
O     0.32980000000000004  0.66825  0.50764     O
O       0.4252  0.74529  0.58281     O
O     0.25270000000000004 0.7554300000000002  0.91765     O
O     0.004840000000000135 -0.16566 -0.0076099999999998955     O
O     0.17642000000000002 -0.16509000000000015 -0.007109999999999839     O
O     0.08135000000000012 0.7545399999999998  0.91757     O
O     0.2529300000000001  0.74589  0.58303     O
O     0.0023200000000000824  0.66795  0.50653     O
O      0.37785  0.78006  0.97279     O
O      0.12679  0.72507  0.52958     O
H     0.06120833061681082 0.5322036376478793 0.5798147268975901     H
H     0.14338213966489055 0.8206638025446392 0.6699170396859789     H
H     0.08294122908358297 0.8283289126349271 0.7835663358728799     H
H     0.1731284103374101 -0.029158742127742297 -0.07984538743639004     H
H     0.3943895042781638 0.9194101692850837 1.0694340956639155     H
H     0.3649669186312595 0.6789543400440206 0.8307376762090004     H
H     0.42437616244992293 0.6711491133194548 0.7167885535852392     H
H     0.331877870256508 0.5325509769300898 0.5796155429452307     H
H       0.3766  0.81503  0.94061     H
H      0.12403  0.69444  0.56579     H
Al     0.75322  0.75145  0.50027    Al
Al     0.50378  0.75094  0.50003    Al
C     0.562603062075542 0.5485098895857444 0.4610244513343707     C
C     0.6919702398289882 0.7889231855806094 0.7045585952214548     C
C     0.6571748465287117 0.7932157212999378 0.7701905014887098     C
C     0.5979607388641857 0.9835868998742355 0.9546387476191168     C
C     -0.05805413643513235 -0.045250220203658355 0.03811493744603909     C
C     0.8149071454711746 0.7095775929132115 0.7964943405347801     C
C     0.8493540108003137 0.7051998502251303 0.7308637165931686     C
C     -0.06650325138624015 0.5486412600639793 0.46083371276187174     C
C     -0.03406000000000005 0.5678899999999999  0.50578     C
C     -0.06982999999999998 0.6387700000000001  0.50768     C
C     0.7890100000000003 0.7450899999999999  0.68362     C
C      0.82477   0.7449  0.61226     C
C     0.7178399999999999  0.75334 0.8174300000000001     C
C     0.6817400000000005  0.75495  0.88843     C
C      0.53872  0.93535 0.9931100000000003     C
C     0.5759400000000002 0.8640399999999997 0.9919400000000003     C
O     -0.17020000000000013  0.66825  0.50764     O
O       0.9252  0.74529  0.58281     O
O     0.7526999999999999 0.7554300000000002  0.91765     O
O     0.5048400000000003  0.83434 0.9923900000000001     O
O     0.6764200000000002 0.8349099999999996 0.9928900000000002     O
O     0.5813500000000001 0.7545399999999998  0.91757     O
O     0.7529300000000004  0.74589  0.58303     O
O     0.5023200000000001  0.66795  0.50653     O
O      0.87785  0.78006  0.97279     O
O      0.62679  0.72507  0.52958     O
H     0.6113745114332785 0.5835903539759241 0.4307098582881047     H
H     0.6433821396648903 0.8206638025446394 0.6699170396859792     H
H     0.5829412290835828 0.8283289126349268 0.7835663358728803     H
H     0.67312841033741 0.9708412578722576 0.9201546125636101     H
H     -0.10561049572183617 -0.0805898307149162 0.06943409566391563     H
H     0.8649669186312597 0.6789543400440206 0.8307376762090004     H
H     0.9243761624499226 0.6711491133194551 0.7167885535852391     H
H     -0.11981535515513825 0.5839480284223245 0.43047792422159686     H
H       0.8766  0.81503  0.94061     H
H      0.62403  0.69444  0.56579     H
