data_I
_chemical_name_common  '/UiO-66_rot_270'
_cell_length_a 14.67267
_cell_length_b 14.67267
_cell_length_c 14.67267
_cell_angle_alpha 60.00000
_cell_angle_beta  60.00000
_cell_angle_gamma 60.00000
_space_group_name_H-M_alt      'P 1'


loop_
_space_group_symop_operation_xyz
  'x, y, z'

loop_
_atom_site_label
_atom_site_fract_x
_atom_site_fract_y
_atom_site_fract_z
_atom_site_type_symbol
C     -0.4009014715923435 -0.052673533816195474 -0.051433443022755536     C
C     -0.517433968612274 0.06509905399717507 0.3884759514113641     C
C     0.5990985284076563 -0.4949915515687052 -0.052673533816195606     C
C     -0.5174339686122741 0.06385896320373498 0.06509905399717497     C
C     -0.40090147159234363 -0.05143344302275544 0.5050084484312947     C
C     0.48256603138772597 -0.6115240485886361 0.06385896320373503     C
H     -0.3169284716539238 -0.09740323042876808 -0.09636055192601674     H
H     -0.5231177741896881 0.1098287506097477 0.30450295147294426     H
H     0.683071528346076 -0.48930774599129123 -0.09740323042876806     H
H     -0.5231177741896881 0.10878607210699616 0.10982875060974762     H
H     -0.3169284716539238 -0.0963605519260166 0.5106922540087087     H
H     0.47688222581031203 -0.6954970485270557 0.10878607210699612     H
C     0.5881323531238939 -0.6005578733048734 0.006212760090489745     C
C     -0.411867646876106 0.006212760090489745 0.0062127600904897315     C
C     -0.4118676468761061 0.006212760090489705 0.3994421266951268     C
C     -0.30881656826982606 0.004048148718604874 0.004048148718604868     C
C     -0.3088165682698261 0.00404814871860486 0.3007202708326165     C
C     0.6911834317301736 -0.6992797291673836 0.004048148718604872     C
O     -0.26724722207022783 -0.07472637229222977 0.07989233042936958     O
O     -0.2672472220702278 -0.07472637229222975 0.26208126393308806     O
O     -0.2672472220702279 0.07989233042936959 -0.07472637229222978     O
O     -0.2672472220702279 0.0798923304293696 0.26208126393308806     O
O     0.7327527779297721 -0.7379187360669119 -0.07472637229222975     O
O     0.732752777929772 -0.7379187360669119 0.07989233042936959     O
O     -0.15125375508900618 0.05041791836300206 0.05041791836300206     O
H     0.10982875060974752 0.47688222581031214 0.10878607210699612     H
H     -0.09740323042876799 0.6830715283460762 -0.4893077459912915     H
H     -0.09740323042876813 -0.09636055192601674 0.6830715283460764     H
H     -0.0974032304287681 -0.09636055192601675 0.5106922540087087     H
H     -0.09740323042876803 0.5106922540087087 -0.31692847165392385     H
H     0.10982875060974762 0.30450295147294426 0.10878607210699623     H
Zr    -0.11979582666147053 -0.11979582666147053 0.11979582666147053    Zr
Zr    -0.11979582666147053 0.11979582666147053 -0.11979582666147053    Zr
Zr    -0.11979582666147053 0.11979582666147053 0.11979582666147053    Zr
H     -0.09439580954463427 -0.09439580954463427 -0.09439580954463427     H
H     -0.09439580954463427 -0.09439580954463427 0.2831874286339028     H
H     -0.09439580954463427 0.2831874286339028 -0.09439580954463427     H
C     -0.05267353381619547 0.5050084484312948 -0.40090147159234374     C
C     0.06509905399717489 0.3884759514113642 0.06385896320373496     C
C     -0.05267353381619549 0.5990985284076563 -0.49499155156870545     C
C     -0.05267353381619552 -0.05143344302275554 0.5050084484312948     C
C     -0.05267353381619551 -0.05143344302275547 0.5990985284076564     C
C     0.06509905399717501 0.4825660313877259 0.0638589632037349     C
O     -0.07472637229222975 0.0798923304293696 0.26208126393308806     O
O     -0.07472637229222971 0.26208126393308806 -0.2672472220702279     O
O     -0.07472637229222974 0.26208126393308806 0.07989233042936959     O
O     -0.0747263722922297 0.7327527779297721 0.07989233042936958     O
O     -0.0747263722922297 0.732752777929772 -0.7379187360669119     O
O     -0.07472637229222978 0.07989233042936955 0.7327527779297722     O
O     -0.06730802701012736 -0.06730802701012736 -0.06730802701012736     O
O     -0.06730802701012736 -0.06730802701012736 0.2019240810303821     O
O     -0.06730802701012736 0.2019240810303821 -0.06730802701012736     O
C     0.004048148718604846 0.00404814871860486 0.3007202708326165     C
C     0.004048148718604846 0.3007202708326165 -0.30881656826982623     C
C     0.004048148718604842 0.3007202708326165 0.004048148718604875     C
C     0.004048148718604826 0.004048148718604826 0.6911834317301737     C
C     0.004048148718604891 0.6911834317301738 0.004048148718604868     C
C     0.004048148718604875 0.6911834317301738 -0.6992797291673837     C
C     0.006212760090489705 0.006212760090489705 0.3994421266951268     C
C     0.00621276009048977 0.39944212669512674 -0.4118676468761062     C
C     0.0062127600904897645 0.39944212669512663 0.006212760090489745     C
C     0.006212760090489735 0.5881323531238937 0.0062127600904897315     C
C     0.006212760090489692 0.5881323531238938 -0.6005578733048733     C
C     0.006212760090489779 0.006212760090489724 0.5881323531238938     C
O     0.05041791836300205 0.05041791836300206 0.05041791836300206     O
O     0.05041791836300206 -0.15125375508900618 0.05041791836300205     O
O     0.05041791836300206 0.05041791836300205 -0.15125375508900618     O
O     0.07989233042936958 -0.07472637229222975 0.26208126393308806     O
O     0.07989233042936959 0.26208126393308806 -0.2672472220702279     O
O     0.07989233042936958 0.26208126393308806 -0.07472637229222975     O
O     0.07989233042936959 0.7327527779297721 -0.07472637229222978     O
O     0.07989233042936958 0.732752777929772 -0.7379187360669119     O
O     0.0798923304293695 -0.07472637229222975 0.7327527779297722     O
C     -0.05143344302275554 0.5990985284076564 -0.052673533816195536     C
C     0.063858963203735 0.48256603138772575 -0.6115240485886357     C
C     0.06385896320373494 0.06509905399717497 0.38847595141136426     C
C     0.06385896320373498 0.0650990539971749 0.48256603138772597     C
C     0.063858963203735 0.38847595141136415 -0.5174339686122741     C
C     -0.051433443022755446 0.5050084484312947 -0.052673533816195606     C
Zr    0.11979582666147053 -0.11979582666147053 -0.11979582666147053    Zr
Zr    0.11979582666147053 -0.11979582666147053 0.11979582666147053    Zr
Zr    0.11979582666147053 0.11979582666147053 -0.11979582666147053    Zr
H     -0.09636055192601675 0.6830715283460762 -0.09740323042876817     H
H     0.10878607210699627 0.4768822258103118 -0.6954970485270557     H
H     0.1087860721069961 0.10982875060974763 0.4768822258103119     H
H     0.10878607210699613 0.10982875060974752 0.3045029514729443     H
H     0.10878607210699623 0.30450295147294426 -0.523117774189688     H
H     -0.0963605519260167 0.5106922540087085 -0.09740323042876806     H
O     0.2019240810303821 -0.06730802701012736 -0.06730802701012736     O
O     0.26208126393308806 -0.26724722207022783 -0.07472637229222978     O
O     0.26208126393308795 -0.26724722207022783 0.07989233042936958     O
O     -0.7379187360669118 -0.07472637229222975 0.7327527779297722     O
O     -0.7379187360669119 -0.07472637229222977 0.07989233042936959     O
O     -0.7379187360669119 0.07989233042936955 0.7327527779297722     O
O     -0.7379187360669118 0.0798923304293696 -0.07472637229222975     O
H     0.2831874286339028 -0.09439580954463427 -0.09439580954463427     H
C     0.3007202708326164 -0.30881656826982623 0.004048148718604865     C
C     -0.6992797291673835 0.004048148718604854 0.6911834317301737     C
C     -0.6992797291673835 0.004048148718604866 0.004048148718604875     C
C     0.3994421266951267 -0.4118676468761062 0.0062127600904897315     C
C     -0.6005578733048733 0.006212760090489724 0.5881323531238938     C
C     -0.6005578733048733 0.0062127600904897315 0.006212760090489745     C
H     0.5106922540087083 -0.3169284716539237 -0.09740323042876815     H
H     -0.6954970485270556 0.10982875060974759 0.47688222581031187     H
H     -0.48930774599129145 -0.09740323042876808 -0.09636055192601672     H
H     0.3045029514729444 -0.5231177741896883 0.10878607210699623     H
H     -0.4893077459912914 -0.09636055192601686 0.6830715283460763     H
H     -0.6954970485270556 0.10878607210699616 0.10982875060974763     H
C     0.5050084484312946 -0.4009014715923436 -0.05267353381619546     C
C     -0.6115240485886358 0.06509905399717499 0.48256603138772597     C
C     -0.4949915515687053 -0.05267353381619546 -0.05143344302275552     C
C     -0.4949915515687054 -0.05143344302275547 0.5990985284076564     C
C     -0.6115240485886357 0.06385896320373496 0.065099053997175     C
C     0.38847595141136415 -0.5174339686122743 0.06385896320373512     C
