data_I
_chemical_name_common  '/UiO-66_rot_135'
_cell_length_a 14.67267
_cell_length_b 14.67267
_cell_length_c 14.67267
_cell_angle_alpha 60.00000
_cell_angle_beta  60.00000
_cell_angle_gamma 60.00000
_space_group_name_H-M_alt      'P 1'


loop_
_space_group_symop_operation_xyz
  'x, y, z'

loop_
_atom_site_label
_atom_site_fract_x
_atom_site_fract_y
_atom_site_fract_z
_atom_site_type_symbol
C     -0.5000581568396458 0.10580788364245619 -0.01160148998680271     C
C     -0.4176572379682518 0.022530088161733686 0.4882526820553864     C
C     0.499941843160354 -0.5941482368160075 0.1058078836424563     C
C     -0.4176572379682519 -0.09312553224886828 0.02253008816173378     C
C     -0.5000581568396456 -0.011601489986802762 0.4058517631839923     C
C     0.5823427620317482 -0.5117473179446137 -0.09312553224886828     C
H     -0.49266138031169987 0.1823143112682123 -0.024612276307444975     H
H     -0.34686352628053635 0.03577917219715569 0.4807571993820962     H
H     0.5073386196883001 -0.6650406546490675 0.18231431126821235     H
H     -0.3468635262805363 -0.16967284529871554 0.03577917219715577     H
H     -0.4926613803116996 -0.024612276307445037 0.3349593453509324     H
H     0.6531364737194638 -0.519242800617904 -0.1696728452987155     H
C     0.5881323531238939 -0.6005578733048734 0.006212760090489745     C
C     -0.411867646876106 0.006212760090489745 0.0062127600904897315     C
C     -0.4118676468761061 0.006212760090489705 0.3994421266951268     C
C     -0.30881656826982606 0.004048148718604874 0.004048148718604868     C
C     -0.3088165682698261 0.00404814871860486 0.3007202708326165     C
C     0.6911834317301736 -0.6992797291673836 0.004048148718604872     C
O     -0.26724722207022783 -0.07472637229222977 0.07989233042936958     O
O     -0.2672472220702278 -0.07472637229222975 0.26208126393308806     O
O     -0.2672472220702279 0.07989233042936959 -0.07472637229222978     O
O     -0.2672472220702279 0.0798923304293696 0.26208126393308806     O
O     0.7327527779297721 -0.7379187360669119 -0.07472637229222975     O
O     0.732752777929772 -0.7379187360669119 0.07989233042936959     O
O     -0.15125375508900618 0.05041791836300206 0.05041791836300206     O
H     0.035779172197155734 0.6531364737194639 -0.16967284529871554     H
H     0.18231431126821213 0.5073386196883002 -0.6650406546490676     H
H     0.18231431126821224 -0.024612276307444995 0.5073386196883002     H
H     0.18231431126821226 -0.024612276307444954 0.3349593453509324     H
H     0.18231431126821238 0.3349593453509327 -0.4926613803117001     H
H     0.03577917219715588 0.48075719938209605 -0.1696728452987156     H
Zr    -0.11979582666147053 -0.11979582666147053 0.11979582666147053    Zr
Zr    -0.11979582666147053 0.11979582666147053 -0.11979582666147053    Zr
Zr    -0.11979582666147053 0.11979582666147053 0.11979582666147053    Zr
H     -0.09439580954463427 -0.09439580954463427 -0.09439580954463427     H
H     -0.09439580954463427 -0.09439580954463427 0.2831874286339028     H
H     -0.09439580954463427 0.2831874286339028 -0.09439580954463427     H
C     0.10580788364245622 0.4058517631839925 -0.500058156839646     C
C     0.022530088161733863 0.48825268205538636 -0.09312553224886828     C
C     0.10580788364245608 0.4999418431603542 -0.5941482368160077     C
C     0.10580788364245608 -0.01160148998680277 0.4058517631839924     C
C     0.1058078836424562 -0.011601489986802755 0.49994184316035406     C
C     0.022530088161733672 0.5823427620317483 -0.09312553224886823     C
O     -0.07472637229222975 0.0798923304293696 0.26208126393308806     O
O     -0.07472637229222971 0.26208126393308806 -0.2672472220702279     O
O     -0.07472637229222974 0.26208126393308806 0.07989233042936959     O
O     -0.0747263722922297 0.7327527779297721 0.07989233042936958     O
O     -0.0747263722922297 0.732752777929772 -0.7379187360669119     O
O     -0.07472637229222978 0.07989233042936955 0.7327527779297722     O
O     -0.06730802701012736 -0.06730802701012736 -0.06730802701012736     O
O     -0.06730802701012736 -0.06730802701012736 0.2019240810303821     O
O     -0.06730802701012736 0.2019240810303821 -0.06730802701012736     O
C     0.004048148718604846 0.00404814871860486 0.3007202708326165     C
C     0.004048148718604846 0.3007202708326165 -0.30881656826982623     C
C     0.004048148718604842 0.3007202708326165 0.004048148718604875     C
C     0.004048148718604826 0.004048148718604826 0.6911834317301737     C
C     0.004048148718604891 0.6911834317301738 0.004048148718604868     C
C     0.004048148718604875 0.6911834317301738 -0.6992797291673837     C
C     0.006212760090489705 0.006212760090489705 0.3994421266951268     C
C     0.00621276009048977 0.39944212669512674 -0.4118676468761062     C
C     0.0062127600904897645 0.39944212669512663 0.006212760090489745     C
C     0.006212760090489735 0.5881323531238937 0.0062127600904897315     C
C     0.006212760090489692 0.5881323531238938 -0.6005578733048733     C
C     0.006212760090489779 0.006212760090489724 0.5881323531238938     C
O     0.05041791836300205 0.05041791836300206 0.05041791836300206     O
O     0.05041791836300206 -0.15125375508900618 0.05041791836300205     O
O     0.05041791836300206 0.05041791836300205 -0.15125375508900618     O
O     0.07989233042936958 -0.07472637229222975 0.26208126393308806     O
O     0.07989233042936959 0.26208126393308806 -0.2672472220702279     O
O     0.07989233042936958 0.26208126393308806 -0.07472637229222975     O
O     0.07989233042936959 0.7327527779297721 -0.07472637229222978     O
O     0.07989233042936958 0.732752777929772 -0.7379187360669119     O
O     0.0798923304293695 -0.07472637229222975 0.7327527779297722     O
C     -0.011601489986802684 0.49994184316035406 0.10580788364245619     C
C     -0.0931255322488684 0.5823427620317481 -0.5117473179446136     C
C     -0.09312553224886827 0.02253008816173374 0.48825268205538647     C
C     -0.09312553224886824 0.02253008816173381 0.5823427620317481     C
C     -0.09312553224886824 0.4882526820553864 -0.41765723796825194     C
C     -0.011601489986802847 0.40585176318399246 0.10580788364245627     C
Zr    0.11979582666147053 -0.11979582666147053 -0.11979582666147053    Zr
Zr    0.11979582666147053 -0.11979582666147053 0.11979582666147053    Zr
Zr    0.11979582666147053 0.11979582666147053 -0.11979582666147053    Zr
H     -0.02461227630744506 0.5073386196883003 0.1823143112682123     H
H     -0.16967284529871568 0.6531364737194637 -0.5192428006179038     H
H     -0.16967284529871554 0.03577917219715584 0.6531364737194637     H
H     -0.16967284529871554 0.035779172197155776 0.48075719938209616     H
H     -0.1696728452987155 0.4807571993820959 -0.34686352628053624     H
H     -0.024612276307444947 0.3349593453509325 0.18231431126821235     H
O     0.2019240810303821 -0.06730802701012736 -0.06730802701012736     O
O     0.26208126393308806 -0.26724722207022783 -0.07472637229222978     O
O     0.26208126393308795 -0.26724722207022783 0.07989233042936958     O
O     -0.7379187360669118 -0.07472637229222975 0.7327527779297722     O
O     -0.7379187360669119 -0.07472637229222977 0.07989233042936959     O
O     -0.7379187360669119 0.07989233042936955 0.7327527779297722     O
O     -0.7379187360669118 0.0798923304293696 -0.07472637229222975     O
H     0.2831874286339028 -0.09439580954463427 -0.09439580954463427     H
C     0.3007202708326164 -0.30881656826982623 0.004048148718604865     C
C     -0.6992797291673835 0.004048148718604854 0.6911834317301737     C
C     -0.6992797291673835 0.004048148718604866 0.004048148718604875     C
C     0.3994421266951267 -0.4118676468761062 0.0062127600904897315     C
C     -0.6005578733048733 0.006212760090489724 0.5881323531238938     C
C     -0.6005578733048733 0.0062127600904897315 0.006212760090489745     C
H     0.33495934535093236 -0.4926613803116998 0.18231431126821235     H
H     -0.5192428006179041 0.03577917219715584 0.6531364737194637     H
H     -0.6650406546490676 0.18231431126821226 -0.024612276307444957     H
H     0.48075719938209616 -0.3468635262805364 -0.16967284529871565     H
H     -0.6650406546490674 -0.024612276307444874 0.5073386196882997     H
H     -0.5192428006179038 -0.16967284529871557 0.03577917219715579     H
C     0.40585176318399235 -0.5000581568396459 0.10580788364245619     C
C     -0.5117473179446138 0.02253008816173376 0.5823427620317482     C
C     -0.5941482368160075 0.10580788364245618 -0.011601489986802691     C
C     -0.5941482368160075 -0.011601489986802759 0.499941843160354     C
C     -0.5117473179446135 -0.09312553224886828 0.022530088161733762     C
C     0.48825268205538647 -0.417657237968252 -0.09312553224886834     C
