
 OpenBabel09282319003D

 13 12  0  0  0  0  0  0  0  0999 V2000
   -1.1771    0.1409    0.0018 O   0  0  0  0  0  0  0  0  0  0  0  0
   -2.3525   -0.6412    0.0133 C   0  0  0  0  0  0  0  0  0  0  0  0
   -0.0457   -0.7036   -0.0051 C   0  0  0  0  0  0  0  0  0  0  0  0
   -3.3913    0.4494    0.0423 C   0  0  0  0  0  0  0  0  0  0  0  0
   -2.3957   -1.2653    0.9348 H   0  0  0  0  0  0  0  0  0  0  0  0
   -2.4022   -1.2849   -0.8943 H   0  0  0  0  0  0  0  0  0  0  0  0
    1.0511    0.3289   -0.0028 C   0  0  0  0  0  0  0  0  0  0  0  0
   -0.0365   -1.3343   -0.9231 H   0  0  0  0  0  0  0  0  0  0  0  0
   -0.0307   -1.3440    0.9061 H   0  0  0  0  0  0  0  0  0  0  0  0
   -4.5715    0.1395    0.0692 O   0  0  0  0  0  0  0  0  0  0  0  0
    2.2131   -0.0445   -0.0083 O   0  0  0  0  0  0  0  0  0  0  0  0
   -3.0599    1.7605    0.0390 O   0  5  0  0  0  0  0  0  0  0  0  0
    0.7914    1.6560    0.0054 O   0  5  0  0  0  0  0  0  0  0  0  0
  1  2  1  0  0  0  0
  1  3  1  0  0  0  0
  2  4  1  0  0  0  0
  2  5  1  0  0  0  0
  2  6  1  0  0  0  0
  3  7  1  0  0  0  0
  3  8  1  0  0  0  0
  3  9  1  0  0  0  0
  4 10  2  0  0  0  0
  4 12  1  0  0  0  0
  7 11  2  0  0  0  0
  7 13  1  0  0  0  0
M  CHG  2  12  -1  13  -1
M  END
